   Input file: /Users/wangjincheng/Desktop/git/irp-jw21/Project_jw21/pqi/0.005ZnNta.pqi
  Output file: /Users/wangjincheng/Desktop/git/irp-jw21/Project_jw21/pqo/0.005ZnNta.pqi.pqi.out
Database file: /Users/wangjincheng/Desktop/git/irp-jw21/Project_jw21/phreeqc/database/minteq.v4.dat

------------------
Reading data base.
------------------

	SOLUTION_MASTER_SPECIES
	SOLUTION_SPECIES
	SOLUTION_SPECIES
	PHASES
	PHASES
	SURFACE_MASTER_SPECIES
	SURFACE_SPECIES
	END
------------------------------------
Reading input data for simulation 1.
------------------------------------

	DATABASE /Users/wangjincheng/Desktop/git/irp-jw21/Project_jw21/phreeqc/database/minteq.v4.dat
	TITLE 04_SURFACE_COMPLEXATION
	SOLUTION_MASTER_SPECIES
	Zn		Zn+2		0.0	Zn	65.39
	Nta		Nta-3		1.0	188.117	188.117
	END
-----
TITLE
-----

 04_SURFACE_COMPLEXATION

------------------
End of simulation.
------------------

------------------------------------
Reading input data for simulation 2.
------------------------------------

	SOLUTION_SPECIES
	Zn+2 + Nta-3 = Zn(Nta)-
	log_k		11.555
	Zn+2 + 2Nta-3 = Zn(Nta)2-4
	log_k		14.683
	Zn+2 + Nta-3 + H2O = ZnOH(Nta)-2 + H+
	log_k		1.197
	END
------------------
End of simulation.
------------------

------------------------------------
Reading input data for simulation 3.
------------------------------------

	SOLUTION 1
	pH		3.0
	Cl		0.005		mol/kgw
	Na		0.005		mol/kgw
	Zn	0.200 	mmol/kgw
	Nta  0.200 	mmol/kgw
	END
-------------------------------------------
Beginning of initial solution calculations.
-------------------------------------------

Initial solution 1.	

-----------------------------Solution composition------------------------------

	Elements           Molality       Moles

	Cl                5.000e-03   5.000e-03
	Na                5.000e-03   5.000e-03
	Nta               2.000e-04   2.000e-04
	Zn                2.000e-04   2.000e-04

----------------------------Description of solution----------------------------

                                       pH  =   3.000    
                                       pe  =   4.000    
                        Activity of water  =   1.000
                 Ionic strength (mol/kgw)  =   5.977e-03
                       Mass of water (kg)  =   1.000e+00
                 Total alkalinity (eq/kg)  =  -1.058e-03
                         Temperature (°C)  =  25.00
                  Electrical balance (eq)  =   1.058e-03
 Percent error, 100*(Cat-|An|)/(Cat+|An|)  =   9.13
                               Iterations  =   9
                                  Total H  = 1.110149e+02
                                  Total O  = 5.550683e+01

----------------------------Distribution of species----------------------------

                                               Log       Log       Log    mole V
   Species          Molality    Activity  Molality  Activity     Gamma   cm³/mol

   H+              1.086e-03   1.000e-03    -2.964    -3.000    -0.036      0.00
   OH-             1.094e-11   1.007e-11   -10.961   -10.997    -0.036     (0)  
   H2O             5.551e+01   9.998e-01     1.744    -0.000     0.000     18.07
Cl            5.000e-03
   Cl-             4.999e-03   4.605e-03    -2.301    -2.337    -0.036     (0)  
   ZnCl+           1.057e-06   9.732e-07    -5.976    -6.012    -0.036     (0)  
   ZnCl2           7.102e-09   7.102e-09    -8.149    -8.149     0.000     (0)  
   ZnCl3-          2.821e-11   2.598e-11   -10.550   -10.585    -0.036     (0)  
   ZnOHCl          1.283e-11   1.283e-11   -10.892   -10.892     0.000     (0)  
   ZnCl4-2         8.255e-14   5.981e-14   -13.083   -13.223    -0.140     (0)  
H(0)          1.414e-17
   H2              7.070e-18   7.079e-18   -17.151   -17.150     0.001     (0)  
Na            5.000e-03
   Na+             5.000e-03   4.606e-03    -2.301    -2.337    -0.036     (0)  
Nta           2.000e-04
   Zn(Nta)-        8.206e-05   7.558e-05    -4.086    -4.122    -0.036     (0)  
   H(Nta)-2        6.826e-05   4.747e-05    -4.166    -4.324    -0.158     (0)  
   H2(Nta)-        4.548e-05   4.154e-05    -4.342    -4.382    -0.039     (0)  
   H3(Nta)         4.154e-06   4.154e-06    -5.382    -5.382     0.000     (0)  
   H4(Nta)+        4.548e-08   4.154e-08    -7.342    -7.382    -0.039     (0)  
   Nta-3           5.243e-12   2.503e-12   -11.280   -11.602    -0.321     (0)  
   ZnOH(Nta)-2     4.604e-12   3.314e-12   -11.337   -11.480    -0.143     (0)  
   Zn(Nta)2-4      9.459e-13   2.540e-13   -12.024   -12.595    -0.571     (0)  
O(0)          0.000e+00
   O2              0.000e+00   0.000e+00   -57.996   -57.995     0.001     (0)  
Zn            2.000e-04
   Zn+2            1.169e-04   8.414e-05    -3.932    -4.075    -0.143     (0)  
   Zn(Nta)-        8.206e-05   7.558e-05    -4.086    -4.122    -0.036     (0)  
   ZnCl+           1.057e-06   9.732e-07    -5.976    -6.012    -0.036     (0)  
   ZnCl2           7.102e-09   7.102e-09    -8.149    -8.149     0.000     (0)  
   ZnOH+           9.276e-11   8.470e-11   -10.033   -10.072    -0.039     (0)  
   ZnCl3-          2.821e-11   2.598e-11   -10.550   -10.585    -0.036     (0)  
   ZnOHCl          1.283e-11   1.283e-11   -10.892   -10.892     0.000     (0)  
   ZnOH(Nta)-2     4.604e-12   3.314e-12   -11.337   -11.480    -0.143     (0)  
   Zn(Nta)2-4      9.459e-13   2.540e-13   -12.024   -12.595    -0.571     (0)  
   ZnCl4-2         8.255e-14   5.981e-14   -13.083   -13.223    -0.140     (0)  
   Zn(OH)2         1.352e-16   1.352e-16   -15.869   -15.869     0.000     (0)  
   Zn(OH)3-        7.467e-24   6.819e-24   -23.127   -23.166    -0.039     (0)  
   Zn(OH)4-2       3.930e-33   2.733e-33   -32.406   -32.563    -0.158     (0)  

------------------------------Saturation indices-------------------------------

  Phase               SI** log IAP   log K(298 K,   1 atm)

  Halite           -6.28     -4.67    1.60  NaCl
  O2(g)           -55.09     28.00   83.09  O2
  Zincite          -9.41      1.92   11.33  ZnO
  Zn(OH)2         -10.28      1.92   12.20  Zn(OH)2
  Zn(OH)2(am)     -10.55      1.92   12.47  Zn(OH)2
  Zn(OH)2(beta)    -9.83      1.92   11.75  Zn(OH)2
  Zn(OH)2(epsilon)  -9.61      1.92   11.53  Zn(OH)2
  Zn(OH)2(gamma)   -9.81      1.92   11.73  Zn(OH)2
  Zn2(OH)3Cl      -16.68     -1.49   15.19  Zn2(OH)3Cl
  Zn5(OH)8Cl2     -39.55     -1.05   38.50  Zn5(OH)8Cl2
  ZnCl2           -15.80     -8.75    7.05  ZnCl2
  Znmetal         -37.86    -12.08   25.79  Zn
  ZnO(active)      -9.26      1.92   11.19  ZnO

**For a gas, SI = log10(fugacity). Fugacity = pressure * phi / 1 atm.
  For ideal gases, phi = 1.

------------------
End of simulation.
------------------

------------------------------------
Reading input data for simulation 4.
------------------------------------

	SOLUTION 2
	pH		3.2
	Cl		0.005		mol/kgw
	Na		0.005		mol/kgw
	Zn	0.200 	mmol/kgw
	Nta  0.200 	mmol/kgw
	END
-------------------------------------------
Beginning of initial solution calculations.
-------------------------------------------

Initial solution 2.	

-----------------------------Solution composition------------------------------

	Elements           Molality       Moles

	Cl                5.000e-03   5.000e-03
	Na                5.000e-03   5.000e-03
	Nta               2.000e-04   2.000e-04
	Zn                2.000e-04   2.000e-04

----------------------------Description of solution----------------------------

                                       pH  =   3.200    
                                       pe  =   4.000    
                        Activity of water  =   1.000
                 Ionic strength (mol/kgw)  =   5.731e-03
                       Mass of water (kg)  =   1.000e+00
                 Total alkalinity (eq/kg)  =  -6.112e-04
                         Temperature (°C)  =  25.00
                  Electrical balance (eq)  =   6.112e-04
 Percent error, 100*(Cat-|An|)/(Cat+|An|)  =   5.49
                               Iterations  =   8
                                  Total H  = 1.110145e+02
                                  Total O  = 5.550683e+01

----------------------------Distribution of species----------------------------

                                               Log       Log       Log    mole V
   Species          Molality    Activity  Molality  Activity     Gamma   cm³/mol

   H+              6.839e-04   6.310e-04    -3.165    -3.200    -0.035      0.00
   OH-             1.732e-11   1.596e-11   -10.762   -10.797    -0.036     (0)  
   H2O             5.551e+01   9.998e-01     1.744    -0.000     0.000     18.07
Cl            5.000e-03
   Cl-             4.999e-03   4.612e-03    -2.301    -2.336    -0.035     (0)  
   ZnCl+           8.651e-07   7.979e-07    -6.063    -6.098    -0.035     (0)  
   ZnCl2           5.832e-09   5.832e-09    -8.234    -8.234     0.000     (0)  
   ZnCl3-          2.317e-11   2.137e-11   -10.635   -10.670    -0.035     (0)  
   ZnOHCl          1.667e-11   1.667e-11   -10.778   -10.778     0.000     (0)  
   ZnCl4-2         6.760e-14   4.927e-14   -13.170   -13.307    -0.137     (0)  
H(0)          5.629e-18
   H2              2.815e-18   2.818e-18   -17.551   -17.550     0.001     (0)  
Na            5.000e-03
   Na+             5.000e-03   4.613e-03    -2.301    -2.336    -0.035     (0)  
Nta           2.000e-04
   Zn(Nta)-        1.040e-04   9.598e-05    -3.983    -4.018    -0.035     (0)  
   H(Nta)-2        6.630e-05   4.646e-05    -4.178    -4.333    -0.154     (0)  
   H2(Nta)-        2.803e-05   2.565e-05    -4.552    -4.591    -0.039     (0)  
   H3(Nta)         1.618e-06   1.618e-06    -5.791    -5.791     0.000     (0)  
   H4(Nta)+        1.116e-08   1.021e-08    -7.952    -7.991    -0.039     (0)  
   ZnOH(Nta)-2     9.208e-12   6.669e-12   -11.036   -11.176    -0.140     (0)  
   Nta-3           8.021e-12   3.882e-12   -11.096   -11.411    -0.315     (0)  
   Zn(Nta)2-4      1.818e-12   5.003e-13   -11.741   -12.301    -0.560     (0)  
O(0)          0.000e+00
   O2              0.000e+00   0.000e+00   -57.196   -57.195     0.001     (0)  
Zn            2.000e-04
   Zn(Nta)-        1.040e-04   9.598e-05    -3.983    -4.018    -0.035     (0)  
   Zn+2            9.509e-05   6.888e-05    -4.022    -4.162    -0.140     (0)  
   ZnCl+           8.651e-07   7.979e-07    -6.063    -6.098    -0.035     (0)  
   ZnCl2           5.832e-09   5.832e-09    -8.234    -8.234     0.000     (0)  
   ZnOH+           1.201e-10   1.099e-10    -9.920    -9.959    -0.039     (0)  
   ZnCl3-          2.317e-11   2.137e-11   -10.635   -10.670    -0.035     (0)  
   ZnOHCl          1.667e-11   1.667e-11   -10.778   -10.778     0.000     (0)  
   ZnOH(Nta)-2     9.208e-12   6.669e-12   -11.036   -11.176    -0.140     (0)  
   Zn(Nta)2-4      1.818e-12   5.003e-13   -11.741   -12.301    -0.560     (0)  
   ZnCl4-2         6.760e-14   4.927e-14   -13.170   -13.307    -0.137     (0)  
   Zn(OH)2         2.779e-16   2.779e-16   -15.556   -15.556     0.000     (0)  
   Zn(OH)3-        2.429e-23   2.223e-23   -22.615   -22.653    -0.039     (0)  
   Zn(OH)4-2       2.015e-32   1.412e-32   -31.696   -31.850    -0.154     (0)  

------------------------------Saturation indices-------------------------------

  Phase               SI** log IAP   log K(298 K,   1 atm)

  Halite           -6.27     -4.67    1.60  NaCl
  O2(g)           -54.29     28.80   83.09  O2
  Zincite          -9.10      2.24   11.33  ZnO
  Zn(OH)2          -9.96      2.24   12.20  Zn(OH)2
  Zn(OH)2(am)     -10.24      2.24   12.47  Zn(OH)2
  Zn(OH)2(beta)    -9.52      2.24   11.75  Zn(OH)2
  Zn(OH)2(epsilon)  -9.30      2.24   11.53  Zn(OH)2
  Zn(OH)2(gamma)   -9.50      2.24   11.73  Zn(OH)2
  Zn2(OH)3Cl      -16.25     -1.06   15.19  Zn2(OH)3Cl
  Zn5(OH)8Cl2     -38.38      0.12   38.50  Zn5(OH)8Cl2
  ZnCl2           -15.88     -8.83    7.05  ZnCl2
  Znmetal         -37.95    -12.16   25.79  Zn
  ZnO(active)      -8.95      2.24   11.19  ZnO

**For a gas, SI = log10(fugacity). Fugacity = pressure * phi / 1 atm.
  For ideal gases, phi = 1.

------------------
End of simulation.
------------------

------------------------------------
Reading input data for simulation 5.
------------------------------------

	SOLUTION 3
	pH		3.4
	Cl		0.005		mol/kgw
	Na		0.005		mol/kgw
	Zn	0.200 	mmol/kgw
	Nta  0.200 	mmol/kgw
	END
-------------------------------------------
Beginning of initial solution calculations.
-------------------------------------------

Initial solution 3.	

-----------------------------Solution composition------------------------------

	Elements           Molality       Moles

	Cl                5.000e-03   5.000e-03
	Na                5.000e-03   5.000e-03
	Nta               2.000e-04   2.000e-04
	Zn                2.000e-04   2.000e-04

----------------------------Description of solution----------------------------

                                       pH  =   3.400    
                                       pe  =   4.000    
                        Activity of water  =   1.000
                 Ionic strength (mol/kgw)  =   5.560e-03
                       Mass of water (kg)  =   1.000e+00
                 Total alkalinity (eq/kg)  =  -3.259e-04
                         Temperature (°C)  =  25.00
                  Electrical balance (eq)  =   3.259e-04
 Percent error, 100*(Cat-|An|)/(Cat+|An|)  =   3.01
                               Iterations  =   8
                                  Total H  = 1.110142e+02
                                  Total O  = 5.550683e+01

----------------------------Distribution of species----------------------------

                                               Log       Log       Log    mole V
   Species          Molality    Activity  Molality  Activity     Gamma   cm³/mol

   H+              4.311e-04   3.981e-04    -3.365    -3.400    -0.035      0.00
   OH-             2.741e-11   2.529e-11   -10.562   -10.597    -0.035     (0)  
   H2O             5.551e+01   9.998e-01     1.744    -0.000     0.000     18.07
Cl            5.000e-03
   Cl-             4.999e-03   4.617e-03    -2.301    -2.336    -0.035     (0)  
   ZnCl+           7.009e-07   6.472e-07    -6.154    -6.189    -0.035     (0)  
   ZnCl2           4.736e-09   4.736e-09    -8.325    -8.325     0.000     (0)  
   ZnOHCl          2.143e-11   2.143e-11   -10.669   -10.669     0.000     (0)  
   ZnCl3-          1.881e-11   1.737e-11   -10.726   -10.760    -0.035     (0)  
   ZnCl4-2         5.478e-14   4.010e-14   -13.261   -13.397    -0.136     (0)  
H(0)          2.241e-18
   H2              1.121e-18   1.122e-18   -17.951   -17.950     0.001     (0)  
Na            5.000e-03
   Na+             5.000e-03   4.618e-03    -2.301    -2.336    -0.035     (0)  
Nta           2.000e-04
   Zn(Nta)-        1.226e-04   1.132e-04    -3.912    -3.946    -0.035     (0)  
   H(Nta)-2        6.059e-05   4.268e-05    -4.218    -4.370    -0.152     (0)  
   H2(Nta)-        1.623e-05   1.487e-05    -4.790    -4.828    -0.038     (0)  
   H3(Nta)         5.919e-07   5.919e-07    -6.228    -6.228     0.000     (0)  
   H4(Nta)+        2.572e-09   2.356e-09    -8.590    -8.628    -0.038     (0)  
   ZnOH(Nta)-2     1.714e-11   1.247e-11   -10.766   -10.904    -0.138     (0)  
   Nta-3           1.156e-11   5.653e-12   -10.937   -11.248    -0.311     (0)  
   Zn(Nta)2-4      3.068e-12   8.594e-13   -11.513   -12.066    -0.553     (0)  
O(0)          0.000e+00
   O2              0.000e+00   0.000e+00   -56.396   -56.395     0.001     (0)  
Zn            2.000e-04
   Zn(Nta)-        1.226e-04   1.132e-04    -3.912    -3.946    -0.035     (0)  
   Zn+2            7.670e-05   5.580e-05    -4.115    -4.253    -0.138     (0)  
   ZnCl+           7.009e-07   6.472e-07    -6.154    -6.189    -0.035     (0)  
   ZnCl2           4.736e-09   4.736e-09    -8.325    -8.325     0.000     (0)  
   ZnOH+           1.540e-10   1.411e-10    -9.812    -9.850    -0.038     (0)  
   ZnOHCl          2.143e-11   2.143e-11   -10.669   -10.669     0.000     (0)  
   ZnCl3-          1.881e-11   1.737e-11   -10.726   -10.760    -0.035     (0)  
   ZnOH(Nta)-2     1.714e-11   1.247e-11   -10.766   -10.904    -0.138     (0)  
   Zn(Nta)2-4      3.068e-12   8.594e-13   -11.513   -12.066    -0.553     (0)  
   ZnCl4-2         5.478e-14   4.010e-14   -13.261   -13.397    -0.136     (0)  
   Zn(OH)2         5.656e-16   5.656e-16   -15.247   -15.247     0.000     (0)  
   Zn(OH)3-        7.824e-23   7.168e-23   -22.107   -22.145    -0.038     (0)  
   Zn(OH)4-2       1.024e-31   7.217e-32   -30.990   -31.142    -0.152     (0)  

------------------------------Saturation indices-------------------------------

  Phase               SI** log IAP   log K(298 K,   1 atm)

  Halite           -6.27     -4.67    1.60  NaCl
  O2(g)           -53.49     29.60   83.09  O2
  Zincite          -8.79      2.55   11.33  ZnO
  Zn(OH)2          -9.65      2.55   12.20  Zn(OH)2
  Zn(OH)2(am)      -9.93      2.55   12.47  Zn(OH)2
  Zn(OH)2(beta)    -9.21      2.55   11.75  Zn(OH)2
  Zn(OH)2(epsilon)  -8.99      2.55   11.53  Zn(OH)2
  Zn(OH)2(gamma)   -9.19      2.55   11.73  Zn(OH)2
  Zn2(OH)3Cl      -15.83     -0.64   15.19  Zn2(OH)3Cl
  Zn5(OH)8Cl2     -37.24      1.26   38.50  Zn5(OH)8Cl2
  ZnCl2           -15.97     -8.92    7.05  ZnCl2
  Znmetal         -38.04    -12.25   25.79  Zn
  ZnO(active)      -8.64      2.55   11.19  ZnO

**For a gas, SI = log10(fugacity). Fugacity = pressure * phi / 1 atm.
  For ideal gases, phi = 1.

------------------
End of simulation.
------------------

------------------------------------
Reading input data for simulation 6.
------------------------------------

	SOLUTION 4
	pH		3.6
	Cl		0.005		mol/kgw
	Na		0.005		mol/kgw
	Zn	0.200 	mmol/kgw
	Nta  0.200 	mmol/kgw
	END
-------------------------------------------
Beginning of initial solution calculations.
-------------------------------------------

Initial solution 4.	

-----------------------------Solution composition------------------------------

	Elements           Molality       Moles

	Cl                5.000e-03   5.000e-03
	Na                5.000e-03   5.000e-03
	Nta               2.000e-04   2.000e-04
	Zn                2.000e-04   2.000e-04

----------------------------Description of solution----------------------------

                                       pH  =   3.600    
                                       pe  =   4.000    
                        Activity of water  =   1.000
                 Ionic strength (mol/kgw)  =   5.439e-03
                       Mass of water (kg)  =   1.000e+00
                 Total alkalinity (eq/kg)  =  -1.434e-04
                         Temperature (°C)  =  25.00
                  Electrical balance (eq)  =   1.434e-04
 Percent error, 100*(Cat-|An|)/(Cat+|An|)  =   1.35
                               Iterations  =   7
                                  Total H  = 1.110140e+02
                                  Total O  = 5.550683e+01

----------------------------Distribution of species----------------------------

                                               Log       Log       Log    mole V
   Species          Molality    Activity  Molality  Activity     Gamma   cm³/mol

   H+              2.718e-04   2.512e-04    -3.566    -3.600    -0.034      0.00
   OH-             4.341e-11   4.008e-11   -10.362   -10.397    -0.035     (0)  
   H2O             5.551e+01   9.998e-01     1.744    -0.000     0.000     18.07
Cl            5.000e-03
   Cl-             4.999e-03   4.621e-03    -2.301    -2.335    -0.034     (0)  
   ZnCl+           5.656e-07   5.226e-07    -6.248    -6.282    -0.034     (0)  
   ZnCl2           3.828e-09   3.828e-09    -8.417    -8.417     0.000     (0)  
   ZnOHCl          2.742e-11   2.742e-11   -10.562   -10.562     0.000     (0)  
   ZnCl3-          1.520e-11   1.405e-11   -10.818   -10.852    -0.034     (0)  
   ZnCl4-2         4.421e-14   3.246e-14   -13.354   -13.489    -0.134     (0)  
H(0)          8.922e-19
   H2              4.461e-19   4.467e-19   -18.351   -18.350     0.001     (0)  
Na            5.000e-03
   Na+             5.000e-03   4.621e-03    -2.301    -2.335    -0.034     (0)  
Nta           2.000e-04
   Zn(Nta)-        1.377e-04   1.273e-04    -3.861    -3.895    -0.034     (0)  
   H(Nta)-2        5.307e-05   3.753e-05    -4.275    -4.426    -0.150     (0)  
   H2(Nta)-        8.994e-06   8.248e-06    -5.046    -5.084    -0.038     (0)  
   H3(Nta)         2.072e-07   2.072e-07    -6.684    -6.684     0.000     (0)  
   H4(Nta)+        5.675e-10   5.204e-10    -9.246    -9.284    -0.038     (0)  
   ZnOH(Nta)-2     3.045e-11   2.222e-11   -10.516   -10.653    -0.137     (0)  
   Nta-3           1.600e-11   7.877e-12   -10.796   -11.104    -0.308     (0)  
   Zn(Nta)2-4      4.746e-12   1.346e-12   -11.324   -11.871    -0.547     (0)  
O(0)          0.000e+00
   O2              0.000e+00   0.000e+00   -55.596   -55.595     0.001     (0)  
Zn            2.000e-04
   Zn(Nta)-        1.377e-04   1.273e-04    -3.861    -3.895    -0.034     (0)  
   Zn+2            6.170e-05   4.503e-05    -4.210    -4.347    -0.137     (0)  
   ZnCl+           5.656e-07   5.226e-07    -6.248    -6.282    -0.034     (0)  
   ZnCl2           3.828e-09   3.828e-09    -8.417    -8.417     0.000     (0)  
   ZnOH+           1.968e-10   1.805e-10    -9.706    -9.744    -0.038     (0)  
   ZnOH(Nta)-2     3.045e-11   2.222e-11   -10.516   -10.653    -0.137     (0)  
   ZnOHCl          2.742e-11   2.742e-11   -10.562   -10.562     0.000     (0)  
   ZnCl3-          1.520e-11   1.405e-11   -10.818   -10.852    -0.034     (0)  
   Zn(Nta)2-4      4.746e-12   1.346e-12   -11.324   -11.871    -0.547     (0)  
   ZnCl4-2         4.421e-14   3.246e-14   -13.354   -13.489    -0.134     (0)  
   Zn(OH)2         1.146e-15   1.146e-15   -14.941   -14.941     0.000     (0)  
   Zn(OH)3-        2.511e-22   2.303e-22   -21.600   -21.638    -0.038     (0)  
   Zn(OH)4-2       5.195e-31   3.674e-31   -30.284   -30.435    -0.150     (0)  

------------------------------Saturation indices-------------------------------

  Phase               SI** log IAP   log K(298 K,   1 atm)

  Halite           -6.27     -4.67    1.60  NaCl
  O2(g)           -52.69     30.40   83.09  O2
  Zincite          -8.48      2.85   11.33  ZnO
  Zn(OH)2          -9.35      2.85   12.20  Zn(OH)2
  Zn(OH)2(am)      -9.62      2.85   12.47  Zn(OH)2
  Zn(OH)2(beta)    -8.90      2.85   11.75  Zn(OH)2
  Zn(OH)2(epsilon)  -8.68      2.85   11.53  Zn(OH)2
  Zn(OH)2(gamma)   -8.88      2.85   11.73  Zn(OH)2
  Zn2(OH)3Cl      -15.42     -0.23   15.19  Zn2(OH)3Cl
  Zn5(OH)8Cl2     -36.10      2.40   38.50  Zn5(OH)8Cl2
  ZnCl2           -16.07     -9.02    7.05  ZnCl2
  Znmetal         -38.14    -12.35   25.79  Zn
  ZnO(active)      -8.33      2.85   11.19  ZnO

**For a gas, SI = log10(fugacity). Fugacity = pressure * phi / 1 atm.
  For ideal gases, phi = 1.

------------------
End of simulation.
------------------

------------------------------------
Reading input data for simulation 7.
------------------------------------

	SOLUTION 5
	pH		3.8
	Cl		0.005		mol/kgw
	Na		0.005		mol/kgw
	Zn	0.200 	mmol/kgw
	Nta  0.200 	mmol/kgw
	END
-------------------------------------------
Beginning of initial solution calculations.
-------------------------------------------

Initial solution 5.	

-----------------------------Solution composition------------------------------

	Elements           Molality       Moles

	Cl                5.000e-03   5.000e-03
	Na                5.000e-03   5.000e-03
	Nta               2.000e-04   2.000e-04
	Zn                2.000e-04   2.000e-04

----------------------------Description of solution----------------------------

                                       pH  =   3.800    
                                       pe  =   4.000    
                        Activity of water  =   1.000
                 Ionic strength (mol/kgw)  =   5.353e-03
                       Mass of water (kg)  =   1.000e+00
                 Total alkalinity (eq/kg)  =  -2.641e-05
                         Temperature (°C)  =  25.00
                  Electrical balance (eq)  =   2.641e-05
 Percent error, 100*(Cat-|An|)/(Cat+|An|)  =   0.25
                               Iterations  =   7
                                  Total H  = 1.110139e+02
                                  Total O  = 5.550683e+01

----------------------------Distribution of species----------------------------

                                               Log       Log       Log    mole V
   Species          Molality    Activity  Molality  Activity     Gamma   cm³/mol

   H+              1.714e-04   1.585e-04    -3.766    -3.800    -0.034      0.00
   OH-             6.876e-11   6.352e-11   -10.163   -10.197    -0.034     (0)  
   H2O             5.551e+01   9.998e-01     1.744    -0.000     0.000     18.07
Cl            5.000e-03
   Cl-             5.000e-03   4.624e-03    -2.301    -2.335    -0.034     (0)  
   ZnCl+           4.557e-07   4.213e-07    -6.341    -6.375    -0.034     (0)  
   ZnCl2           3.087e-09   3.087e-09    -8.510    -8.510     0.000     (0)  
   ZnOHCl          3.504e-11   3.504e-11   -10.455   -10.455     0.000     (0)  
   ZnCl3-          1.226e-11   1.134e-11   -10.911   -10.945    -0.034     (0)  
   ZnCl4-2         3.563e-14   2.621e-14   -13.448   -13.581    -0.133     (0)  
H(0)          3.552e-19
   H2              1.776e-19   1.778e-19   -18.751   -18.750     0.001     (0)  
Na            5.000e-03
   Na+             5.000e-03   4.624e-03    -2.301    -2.335    -0.034     (0)  
Nta           2.000e-04
   Zn(Nta)-        1.499e-04   1.387e-04    -3.824    -3.858    -0.034     (0)  
   H(Nta)-2        4.515e-05   3.202e-05    -4.345    -4.495    -0.149     (0)  
   H2(Nta)-        4.838e-06   4.440e-06    -5.315    -5.353    -0.037     (0)  
   H3(Nta)         7.036e-08   7.036e-08    -7.153    -7.153     0.000     (0)  
   H4(Nta)+        1.215e-10   1.115e-10    -9.915    -9.953    -0.037     (0)  
   ZnOH(Nta)-2     5.245e-11   3.836e-11   -10.280   -10.416    -0.136     (0)  
   Nta-3           2.152e-11   1.065e-11   -10.667   -10.973    -0.306     (0)  
   Zn(Nta)2-4      6.927e-12   1.983e-12   -11.159   -11.703    -0.543     (0)  
O(0)          0.000e+00
   O2              0.000e+00   0.000e+00   -54.796   -54.795     0.001     (0)  
Zn            2.000e-04
   Zn(Nta)-        1.499e-04   1.387e-04    -3.824    -3.858    -0.034     (0)  
   Zn+2            4.959e-05   3.628e-05    -4.305    -4.440    -0.136     (0)  
   ZnCl+           4.557e-07   4.213e-07    -6.341    -6.375    -0.034     (0)  
   ZnCl2           3.087e-09   3.087e-09    -8.510    -8.510     0.000     (0)  
   ZnOH+           2.511e-10   2.304e-10    -9.600    -9.637    -0.037     (0)  
   ZnOH(Nta)-2     5.245e-11   3.836e-11   -10.280   -10.416    -0.136     (0)  
   ZnOHCl          3.504e-11   3.504e-11   -10.455   -10.455     0.000     (0)  
   ZnCl3-          1.226e-11   1.134e-11   -10.911   -10.945    -0.034     (0)  
   Zn(Nta)2-4      6.927e-12   1.983e-12   -11.159   -11.703    -0.543     (0)  
   ZnCl4-2         3.563e-14   2.621e-14   -13.448   -13.581    -0.133     (0)  
   Zn(OH)2         2.320e-15   2.320e-15   -14.635   -14.635     0.000     (0)  
   Zn(OH)3-        8.048e-22   7.386e-22   -21.094   -21.132    -0.037     (0)  
   Zn(OH)4-2       2.634e-30   1.868e-30   -29.579   -29.729    -0.149     (0)  

------------------------------Saturation indices-------------------------------

  Phase               SI** log IAP   log K(298 K,   1 atm)

  Halite           -6.27     -4.67    1.60  NaCl
  O2(g)           -51.89     31.20   83.09  O2
  Zincite          -8.17      3.16   11.33  ZnO
  Zn(OH)2          -9.04      3.16   12.20  Zn(OH)2
  Zn(OH)2(am)      -9.31      3.16   12.47  Zn(OH)2
  Zn(OH)2(beta)    -8.59      3.16   11.75  Zn(OH)2
  Zn(OH)2(epsilon)  -8.37      3.16   11.53  Zn(OH)2
  Zn(OH)2(gamma)   -8.57      3.16   11.73  Zn(OH)2
  Zn2(OH)3Cl      -15.01      0.18   15.19  Zn2(OH)3Cl
  Zn5(OH)8Cl2     -34.97      3.53   38.50  Zn5(OH)8Cl2
  ZnCl2           -16.16     -9.11    7.05  ZnCl2
  Znmetal         -38.23    -12.44   25.79  Zn
  ZnO(active)      -8.03      3.16   11.19  ZnO

**For a gas, SI = log10(fugacity). Fugacity = pressure * phi / 1 atm.
  For ideal gases, phi = 1.

------------------
End of simulation.
------------------

------------------------------------
Reading input data for simulation 8.
------------------------------------

	SOLUTION 6
	pH		4.0
	Cl		0.005		mol/kgw
	Na		0.005		mol/kgw
	Zn	0.200 	mmol/kgw
	Nta  0.200 	mmol/kgw
	END
-------------------------------------------
Beginning of initial solution calculations.
-------------------------------------------

Initial solution 6.	

-----------------------------Solution composition------------------------------

	Elements           Molality       Moles

	Cl                5.000e-03   5.000e-03
	Na                5.000e-03   5.000e-03
	Nta               2.000e-04   2.000e-04
	Zn                2.000e-04   2.000e-04

----------------------------Description of solution----------------------------

                                       pH  =   4.000    
                                       pe  =   4.000    
                        Activity of water  =   1.000
                 Ionic strength (mol/kgw)  =   5.290e-03
                       Mass of water (kg)  =   1.000e+00
                 Total alkalinity (eq/kg)  =   4.910e-05
                         Temperature (°C)  =  25.00
                  Electrical balance (eq)  =  -4.910e-05
 Percent error, 100*(Cat-|An|)/(Cat+|An|)  =  -0.47
                               Iterations  =   7
                                  Total H  = 1.110138e+02
                                  Total O  = 5.550683e+01

----------------------------Distribution of species----------------------------

                                               Log       Log       Log    mole V
   Species          Molality    Activity  Molality  Activity     Gamma   cm³/mol

   H+              1.081e-04   1.000e-04    -3.966    -4.000    -0.034      0.00
   OH-             1.089e-10   1.007e-10    -9.963    -9.997    -0.034     (0)  
   H2O             5.551e+01   9.998e-01     1.744    -0.000     0.000     18.07
Cl            5.000e-03
   Cl-             5.000e-03   4.626e-03    -2.301    -2.335    -0.034     (0)  
   ZnCl+           3.668e-07   3.393e-07    -6.436    -6.469    -0.034     (0)  
   ZnCl2           2.487e-09   2.487e-09    -8.604    -8.604     0.000     (0)  
   ZnOHCl          4.472e-11   4.472e-11   -10.350   -10.350     0.000     (0)  
   ZnCl3-          9.879e-12   9.138e-12   -11.005   -11.039    -0.034     (0)  
   ZnCl4-2         2.868e-14   2.114e-14   -13.542   -13.675    -0.133     (0)  
H(0)          1.414e-19
   H2              7.071e-20   7.079e-20   -19.151   -19.150     0.001     (0)  
Na            5.000e-03
   Na+             5.000e-03   4.626e-03    -2.301    -2.335    -0.034     (0)  
Nta           2.000e-04
   Zn(Nta)-        1.598e-04   1.478e-04    -3.796    -3.830    -0.034     (0)  
   H(Nta)-2        3.765e-05   2.675e-05    -4.424    -4.573    -0.148     (0)  
   H2(Nta)-        2.550e-06   2.341e-06    -5.594    -5.631    -0.037     (0)  
   H3(Nta)         2.341e-08   2.341e-08    -7.631    -7.631     0.000     (0)  
   ZnOH(Nta)-2     8.846e-11   6.481e-11   -10.053   -10.188    -0.135     (0)  
   Nta-3           2.840e-11   1.410e-11   -10.547   -10.851    -0.304     (0)  
   H4(Nta)+        2.550e-11   2.341e-11   -10.594   -10.631    -0.037     (0)  
   Zn(Nta)2-4      9.715e-12   2.800e-12   -11.013   -11.553    -0.540     (0)  
O(0)          0.000e+00
   O2              0.000e+00   0.000e+00   -53.996   -53.995     0.001     (0)  
Zn            2.000e-04
   Zn(Nta)-        1.598e-04   1.478e-04    -3.796    -3.830    -0.034     (0)  
   Zn+2            3.985e-05   2.920e-05    -4.400    -4.535    -0.135     (0)  
   ZnCl+           3.668e-07   3.393e-07    -6.436    -6.469    -0.034     (0)  
   ZnCl2           2.487e-09   2.487e-09    -8.604    -8.604     0.000     (0)  
   ZnOH+           3.202e-10   2.940e-10    -9.495    -9.532    -0.037     (0)  
   ZnOH(Nta)-2     8.846e-11   6.481e-11   -10.053   -10.188    -0.135     (0)  
   ZnOHCl          4.472e-11   4.472e-11   -10.350   -10.350     0.000     (0)  
   ZnCl3-          9.879e-12   9.138e-12   -11.005   -11.039    -0.034     (0)  
   Zn(Nta)2-4      9.715e-12   2.800e-12   -11.013   -11.553    -0.540     (0)  
   ZnCl4-2         2.868e-14   2.114e-14   -13.542   -13.675    -0.133     (0)  
   Zn(OH)2         4.691e-15   4.691e-15   -14.329   -14.329     0.000     (0)  
   Zn(OH)3-        2.578e-21   2.367e-21   -20.589   -20.626    -0.037     (0)  
   Zn(OH)4-2       1.335e-29   9.486e-30   -28.875   -29.023    -0.148     (0)  

------------------------------Saturation indices-------------------------------

  Phase               SI** log IAP   log K(298 K,   1 atm)

  Halite           -6.27     -4.67    1.60  NaCl
  O2(g)           -51.09     32.00   83.09  O2
  Zincite          -7.87      3.47   11.33  ZnO
  Zn(OH)2          -8.73      3.47   12.20  Zn(OH)2
  Zn(OH)2(am)      -9.01      3.47   12.47  Zn(OH)2
  Zn(OH)2(beta)    -8.29      3.47   11.75  Zn(OH)2
  Zn(OH)2(epsilon)  -8.07      3.47   11.53  Zn(OH)2
  Zn(OH)2(gamma)   -8.27      3.47   11.73  Zn(OH)2
  Zn2(OH)3Cl      -14.60      0.60   15.19  Zn2(OH)3Cl
  Zn5(OH)8Cl2     -33.84      4.66   38.50  Zn5(OH)8Cl2
  ZnCl2           -16.25     -9.20    7.05  ZnCl2
  Znmetal         -38.32    -12.53   25.79  Zn
  ZnO(active)      -7.72      3.47   11.19  ZnO

**For a gas, SI = log10(fugacity). Fugacity = pressure * phi / 1 atm.
  For ideal gases, phi = 1.

------------------
End of simulation.
------------------

------------------------------------
Reading input data for simulation 9.
------------------------------------

	SOLUTION 7
	pH		4.2
	Cl		0.005		mol/kgw
	Na		0.005		mol/kgw
	Zn	0.200 	mmol/kgw
	Nta  0.200 	mmol/kgw
	END
-------------------------------------------
Beginning of initial solution calculations.
-------------------------------------------

Initial solution 7.	

-----------------------------Solution composition------------------------------

	Elements           Molality       Moles

	Cl                5.000e-03   5.000e-03
	Na                5.000e-03   5.000e-03
	Nta               2.000e-04   2.000e-04
	Zn                2.000e-04   2.000e-04

----------------------------Description of solution----------------------------

                                       pH  =   4.200    
                                       pe  =   4.000    
                        Activity of water  =   1.000
                 Ionic strength (mol/kgw)  =   5.245e-03
                       Mass of water (kg)  =   1.000e+00
                 Total alkalinity (eq/kg)  =   9.818e-05
                         Temperature (°C)  =  25.00
                  Electrical balance (eq)  =  -9.818e-05
 Percent error, 100*(Cat-|An|)/(Cat+|An|)  =  -0.95
                               Iterations  =   7
                                  Total H  = 1.110138e+02
                                  Total O  = 5.550683e+01

----------------------------Distribution of species----------------------------

                                               Log       Log       Log    mole V
   Species          Molality    Activity  Molality  Activity     Gamma   cm³/mol

   H+              6.818e-05   6.310e-05    -4.166    -4.200    -0.034      0.00
   OH-             1.726e-10   1.596e-10    -9.763    -9.797    -0.034     (0)  
   H2O             5.551e+01   9.998e-01     1.744    -0.000     0.000     18.07
Cl            5.000e-03
   Cl-             5.000e-03   4.627e-03    -2.301    -2.335    -0.034     (0)  
   ZnCl+           2.949e-07   2.729e-07    -6.530    -6.564    -0.034     (0)  
   ZnCl2           2.001e-09   2.001e-09    -8.699    -8.699     0.000     (0)  
   ZnOHCl          5.700e-11   5.700e-11   -10.244   -10.244     0.000     (0)  
   ZnCl3-          7.949e-12   7.355e-12   -11.100   -11.133    -0.034     (0)  
   ZnCl4-2         2.306e-14   1.702e-14   -13.637   -13.769    -0.132     (0)  
H(0)          5.630e-20
   H2              2.815e-20   2.818e-20   -19.551   -19.550     0.001     (0)  
Na            5.000e-03
   Na+             5.000e-03   4.627e-03    -2.301    -2.335    -0.034     (0)  
Nta           2.000e-04
   Zn(Nta)-        1.677e-04   1.552e-04    -3.775    -3.809    -0.034     (0)  
   H(Nta)-2        3.097e-05   2.204e-05    -4.509    -4.657    -0.148     (0)  
   H2(Nta)-        1.325e-06   1.217e-06    -5.878    -5.915    -0.037     (0)  
   H3(Nta)         7.677e-09   7.677e-09    -8.115    -8.115     0.000     (0)  
   ZnOH(Nta)-2     1.470e-10   1.078e-10    -9.833    -9.967    -0.135     (0)  
   Nta-3           3.698e-11   1.842e-11   -10.432   -10.735    -0.303     (0)  
   Zn(Nta)2-4      1.325e-11   3.838e-12   -10.878   -11.416    -0.538     (0)  
   H4(Nta)+        5.274e-12   4.844e-12   -11.278   -11.315    -0.037     (0)  
O(0)          0.000e+00
   O2              0.000e+00   0.000e+00   -53.196   -53.195     0.001     (0)  
Zn            2.000e-04
   Zn(Nta)-        1.677e-04   1.552e-04    -3.775    -3.809    -0.034     (0)  
   Zn+2            3.201e-05   2.348e-05    -4.495    -4.629    -0.135     (0)  
   ZnCl+           2.949e-07   2.729e-07    -6.530    -6.564    -0.034     (0)  
   ZnCl2           2.001e-09   2.001e-09    -8.699    -8.699     0.000     (0)  
   ZnOH+           4.079e-10   3.746e-10    -9.389    -9.426    -0.037     (0)  
   ZnOH(Nta)-2     1.470e-10   1.078e-10    -9.833    -9.967    -0.135     (0)  
   ZnOHCl          5.700e-11   5.700e-11   -10.244   -10.244     0.000     (0)  
   Zn(Nta)2-4      1.325e-11   3.838e-12   -10.878   -11.416    -0.538     (0)  
   ZnCl3-          7.949e-12   7.355e-12   -11.100   -11.133    -0.034     (0)  
   ZnCl4-2         2.306e-14   1.702e-14   -13.637   -13.769    -0.132     (0)  
   Zn(OH)2         9.474e-15   9.474e-15   -14.023   -14.023     0.000     (0)  
   Zn(OH)3-        8.249e-21   7.576e-21   -20.084   -20.121    -0.037     (0)  
   Zn(OH)4-2       6.763e-29   4.812e-29   -28.170   -28.318    -0.148     (0)  

------------------------------Saturation indices-------------------------------

  Phase               SI** log IAP   log K(298 K,   1 atm)

  Halite           -6.27     -4.67    1.60  NaCl
  O2(g)           -50.29     32.80   83.09  O2
  Zincite          -7.56      3.77   11.33  ZnO
  Zn(OH)2          -8.43      3.77   12.20  Zn(OH)2
  Zn(OH)2(am)      -8.70      3.77   12.47  Zn(OH)2
  Zn(OH)2(beta)    -7.98      3.77   11.75  Zn(OH)2
  Zn(OH)2(epsilon)  -7.76      3.77   11.53  Zn(OH)2
  Zn(OH)2(gamma)   -7.96      3.77   11.73  Zn(OH)2
  Zn2(OH)3Cl      -14.18      1.01   15.19  Zn2(OH)3Cl
  Zn5(OH)8Cl2     -32.72      5.78   38.50  Zn5(OH)8Cl2
  ZnCl2           -16.35     -9.30    7.05  ZnCl2
  Znmetal         -38.42    -12.63   25.79  Zn
  ZnO(active)      -7.42      3.77   11.19  ZnO

**For a gas, SI = log10(fugacity). Fugacity = pressure * phi / 1 atm.
  For ideal gases, phi = 1.

------------------
End of simulation.
------------------

-------------------------------------
Reading input data for simulation 10.
-------------------------------------

	SOLUTION 8
	pH		4.4
	Cl		0.005		mol/kgw
	Na		0.005		mol/kgw
	Zn	0.200 	mmol/kgw
	Nta  0.200 	mmol/kgw
	END
-------------------------------------------
Beginning of initial solution calculations.
-------------------------------------------

Initial solution 8.	

-----------------------------Solution composition------------------------------

	Elements           Molality       Moles

	Cl                5.000e-03   5.000e-03
	Na                5.000e-03   5.000e-03
	Nta               2.000e-04   2.000e-04
	Zn                2.000e-04   2.000e-04

----------------------------Description of solution----------------------------

                                       pH  =   4.400    
                                       pe  =   4.000    
                        Activity of water  =   1.000
                 Ionic strength (mol/kgw)  =   5.211e-03
                       Mass of water (kg)  =   1.000e+00
                 Total alkalinity (eq/kg)  =   1.304e-04
                         Temperature (°C)  =  25.00
                  Electrical balance (eq)  =  -1.304e-04
 Percent error, 100*(Cat-|An|)/(Cat+|An|)  =  -1.26
                               Iterations  =   7
                                  Total H  = 1.110137e+02
                                  Total O  = 5.550683e+01

----------------------------Distribution of species----------------------------

                                               Log       Log       Log    mole V
   Species          Molality    Activity  Molality  Activity     Gamma   cm³/mol

   H+              4.301e-05   3.981e-05    -4.366    -4.400    -0.034      0.00
   OH-             2.735e-10   2.529e-10    -9.563    -9.597    -0.034     (0)  
   H2O             5.551e+01   9.998e-01     1.744    -0.000     0.000     18.07
Cl            5.000e-03
   Cl-             5.000e-03   4.628e-03    -2.301    -2.335    -0.034     (0)  
   ZnCl+           2.369e-07   2.192e-07    -6.626    -6.659    -0.034     (0)  
   ZnCl2           1.608e-09   1.608e-09    -8.794    -8.794     0.000     (0)  
   ZnOHCl          7.257e-11   7.257e-11   -10.139   -10.139     0.000     (0)  
   ZnCl3-          6.387e-12   5.911e-12   -11.195   -11.228    -0.034     (0)  
   ZnCl4-2         1.852e-14   1.368e-14   -13.732   -13.864    -0.132     (0)  
H(0)          2.241e-20
   H2              1.121e-20   1.122e-20   -19.951   -19.950     0.001     (0)  
Na            5.000e-03
   Na+             5.000e-03   4.628e-03    -2.301    -2.335    -0.034     (0)  
Nta           2.000e-04
   Zn(Nta)-        1.741e-04   1.611e-04    -3.759    -3.793    -0.034     (0)  
   H(Nta)-2        2.524e-05   1.798e-05    -4.598    -4.745    -0.147     (0)  
   H2(Nta)-        6.817e-07   6.263e-07    -6.166    -6.203    -0.037     (0)  
   H3(Nta)         2.493e-09   2.493e-09    -8.603    -8.603     0.000     (0)  
   ZnOH(Nta)-2     2.417e-10   1.775e-10    -9.617    -9.751    -0.134     (0)  
   Nta-3           4.771e-11   2.381e-11   -10.321   -10.623    -0.302     (0)  
   Zn(Nta)2-4      1.773e-11   5.152e-12   -10.751   -11.288    -0.537     (0)  
   H4(Nta)+        1.080e-12   9.926e-13   -11.966   -12.003    -0.037     (0)  
O(0)          0.000e+00
   O2              0.000e+00   0.000e+00   -52.396   -52.395     0.001     (0)  
Zn            2.000e-04
   Zn(Nta)-        1.741e-04   1.611e-04    -3.759    -3.793    -0.034     (0)  
   Zn+2            2.568e-05   1.886e-05    -4.590    -4.725    -0.134     (0)  
   ZnCl+           2.369e-07   2.192e-07    -6.626    -6.659    -0.034     (0)  
   ZnCl2           1.608e-09   1.608e-09    -8.794    -8.794     0.000     (0)  
   ZnOH+           5.190e-10   4.768e-10    -9.285    -9.322    -0.037     (0)  
   ZnOH(Nta)-2     2.417e-10   1.775e-10    -9.617    -9.751    -0.134     (0)  
   ZnOHCl          7.257e-11   7.257e-11   -10.139   -10.139     0.000     (0)  
   Zn(Nta)2-4      1.773e-11   5.152e-12   -10.751   -11.288    -0.537     (0)  
   ZnCl3-          6.387e-12   5.911e-12   -11.195   -11.228    -0.034     (0)  
   Zn(OH)2         1.911e-14   1.911e-14   -13.719   -13.719     0.000     (0)  
   ZnCl4-2         1.852e-14   1.368e-14   -13.732   -13.864    -0.132     (0)  
   Zn(OH)3-        2.637e-20   2.422e-20   -19.579   -19.616    -0.037     (0)  
   Zn(OH)4-2       3.423e-28   2.439e-28   -27.466   -27.613    -0.147     (0)  

------------------------------Saturation indices-------------------------------

  Phase               SI** log IAP   log K(298 K,   1 atm)

  Halite           -6.27     -4.67    1.60  NaCl
  O2(g)           -49.49     33.60   83.09  O2
  Zincite          -7.26      4.08   11.33  ZnO
  Zn(OH)2          -8.12      4.08   12.20  Zn(OH)2
  Zn(OH)2(am)      -8.40      4.08   12.47  Zn(OH)2
  Zn(OH)2(beta)    -7.68      4.08   11.75  Zn(OH)2
  Zn(OH)2(epsilon)  -7.46      4.08   11.53  Zn(OH)2
  Zn(OH)2(gamma)   -7.66      4.08   11.73  Zn(OH)2
  Zn2(OH)3Cl      -13.77      1.42   15.19  Zn2(OH)3Cl
  Zn5(OH)8Cl2     -31.59      6.91   38.50  Zn5(OH)8Cl2
  ZnCl2           -16.44     -9.39    7.05  ZnCl2
  Znmetal         -38.51    -12.72   25.79  Zn
  ZnO(active)      -7.11      4.08   11.19  ZnO

**For a gas, SI = log10(fugacity). Fugacity = pressure * phi / 1 atm.
  For ideal gases, phi = 1.

------------------
End of simulation.
------------------

-------------------------------------
Reading input data for simulation 11.
-------------------------------------

	SOLUTION 9
	pH		4.6
	Cl		0.005		mol/kgw
	Na		0.005		mol/kgw
	Zn	0.200 	mmol/kgw
	Nta  0.200 	mmol/kgw
	END
-------------------------------------------
Beginning of initial solution calculations.
-------------------------------------------

Initial solution 9.	

-----------------------------Solution composition------------------------------

	Elements           Molality       Moles

	Cl                5.000e-03   5.000e-03
	Na                5.000e-03   5.000e-03
	Nta               2.000e-04   2.000e-04
	Zn                2.000e-04   2.000e-04

----------------------------Description of solution----------------------------

                                       pH  =   4.600    
                                       pe  =   4.000    
                        Activity of water  =   1.000
                 Ionic strength (mol/kgw)  =   5.185e-03
                       Mass of water (kg)  =   1.000e+00
                 Total alkalinity (eq/kg)  =   1.517e-04
                         Temperature (°C)  =  25.00
                  Electrical balance (eq)  =  -1.517e-04
 Percent error, 100*(Cat-|An|)/(Cat+|An|)  =  -1.47
                               Iterations  =   7
                                  Total H  = 1.110137e+02
                                  Total O  = 5.550683e+01

----------------------------Distribution of species----------------------------

                                               Log       Log       Log    mole V
   Species          Molality    Activity  Molality  Activity     Gamma   cm³/mol

   H+              2.713e-05   2.512e-05    -4.567    -4.600    -0.033      0.00
   OH-             4.334e-10   4.008e-10    -9.363    -9.397    -0.034     (0)  
   H2O             5.551e+01   9.998e-01     1.744    -0.000     0.000     18.07
Cl            5.000e-03
   Cl-             5.000e-03   4.629e-03    -2.301    -2.335    -0.033     (0)  
   ZnCl+           1.900e-07   1.758e-07    -6.721    -6.755    -0.034     (0)  
   ZnCl2           1.290e-09   1.290e-09    -8.889    -8.889     0.000     (0)  
   ZnOHCl          9.227e-11   9.227e-11   -10.035   -10.035     0.000     (0)  
   ZnCl3-          5.125e-12   4.744e-12   -11.290   -11.324    -0.034     (0)  
   ZnCl4-2         1.486e-14   1.098e-14   -13.828   -13.959    -0.131     (0)  
H(0)          8.923e-21
   H2              4.462e-21   4.467e-21   -20.351   -20.350     0.001     (0)  
Na            5.000e-03
   Na+             5.000e-03   4.629e-03    -2.301    -2.334    -0.033     (0)  
Nta           2.000e-04
   Zn(Nta)-        1.792e-04   1.659e-04    -3.747    -3.780    -0.033     (0)  
   H(Nta)-2        2.043e-05   1.456e-05    -4.690    -4.837    -0.147     (0)  
   H2(Nta)-        3.483e-07   3.201e-07    -6.458    -6.495    -0.037     (0)  
   H3(Nta)         8.040e-10   8.040e-10    -9.095    -9.095     0.000     (0)  
   ZnOH(Nta)-2     3.942e-10   2.896e-10    -9.404    -9.538    -0.134     (0)  
   Nta-3           6.116e-11   3.057e-11   -10.214   -10.515    -0.301     (0)  
   Zn(Nta)2-4      2.337e-11   6.811e-12   -10.631   -11.167    -0.535     (0)  
   H4(Nta)+        2.198e-13   2.020e-13   -12.658   -12.695    -0.037     (0)  
O(0)          0.000e+00
   O2              0.000e+00   0.000e+00   -51.596   -51.595     0.001     (0)  
Zn            2.000e-04
   Zn(Nta)-        1.792e-04   1.659e-04    -3.747    -3.780    -0.033     (0)  
   Zn+2            2.058e-05   1.512e-05    -4.686    -4.820    -0.134     (0)  
   ZnCl+           1.900e-07   1.758e-07    -6.721    -6.755    -0.034     (0)  
   ZnCl2           1.290e-09   1.290e-09    -8.889    -8.889     0.000     (0)  
   ZnOH+           6.596e-10   6.061e-10    -9.181    -9.217    -0.037     (0)  
   ZnOH(Nta)-2     3.942e-10   2.896e-10    -9.404    -9.538    -0.134     (0)  
   ZnOHCl          9.227e-11   9.227e-11   -10.035   -10.035     0.000     (0)  
   Zn(Nta)2-4      2.337e-11   6.811e-12   -10.631   -11.167    -0.535     (0)  
   ZnCl3-          5.125e-12   4.744e-12   -11.290   -11.324    -0.034     (0)  
   Zn(OH)2         3.850e-14   3.850e-14   -13.415   -13.415     0.000     (0)  
   ZnCl4-2         1.486e-14   1.098e-14   -13.828   -13.959    -0.131     (0)  
   Zn(OH)3-        8.417e-20   7.734e-20   -19.075   -19.112    -0.037     (0)  
   Zn(OH)4-2       1.731e-27   1.234e-27   -26.762   -26.909    -0.147     (0)  

------------------------------Saturation indices-------------------------------

  Phase               SI** log IAP   log K(298 K,   1 atm)

  Halite           -6.27     -4.67    1.60  NaCl
  O2(g)           -48.69     34.40   83.09  O2
  Zincite          -6.95      4.38   11.33  ZnO
  Zn(OH)2          -7.82      4.38   12.20  Zn(OH)2
  Zn(OH)2(am)      -8.09      4.38   12.47  Zn(OH)2
  Zn(OH)2(beta)    -7.37      4.38   11.75  Zn(OH)2
  Zn(OH)2(epsilon)  -7.15      4.38   11.53  Zn(OH)2
  Zn(OH)2(gamma)   -7.35      4.38   11.73  Zn(OH)2
  Zn2(OH)3Cl      -13.37      1.82   15.19  Zn2(OH)3Cl
  Zn5(OH)8Cl2     -30.47      8.03   38.50  Zn5(OH)8Cl2
  ZnCl2           -16.54     -9.49    7.05  ZnCl2
  Znmetal         -38.61    -12.82   25.79  Zn
  ZnO(active)      -6.81      4.38   11.19  ZnO

**For a gas, SI = log10(fugacity). Fugacity = pressure * phi / 1 atm.
  For ideal gases, phi = 1.

------------------
End of simulation.
------------------

-------------------------------------
Reading input data for simulation 12.
-------------------------------------

	SOLUTION 10
	pH		4.8
	Cl		0.005		mol/kgw
	Na		0.005		mol/kgw
	Zn	0.200 	mmol/kgw
	Nta  0.200 	mmol/kgw
	END
-------------------------------------------
Beginning of initial solution calculations.
-------------------------------------------

Initial solution 10.	

-----------------------------Solution composition------------------------------

	Elements           Molality       Moles

	Cl                5.000e-03   5.000e-03
	Na                5.000e-03   5.000e-03
	Nta               2.000e-04   2.000e-04
	Zn                2.000e-04   2.000e-04

----------------------------Description of solution----------------------------

                                       pH  =   4.800    
                                       pe  =   4.000    
                        Activity of water  =   1.000
                 Ionic strength (mol/kgw)  =   5.166e-03
                       Mass of water (kg)  =   1.000e+00
                 Total alkalinity (eq/kg)  =   1.661e-04
                         Temperature (°C)  =  25.00
                  Electrical balance (eq)  =  -1.661e-04
 Percent error, 100*(Cat-|An|)/(Cat+|An|)  =  -1.62
                               Iterations  =   7
                                  Total H  = 1.110137e+02
                                  Total O  = 5.550683e+01

----------------------------Distribution of species----------------------------

                                               Log       Log       Log    mole V
   Species          Molality    Activity  Molality  Activity     Gamma   cm³/mol

   H+              1.712e-05   1.585e-05    -4.767    -4.800    -0.033      0.00
   OH-             6.867e-10   6.352e-10    -9.163    -9.197    -0.034     (0)  
   H2O             5.551e+01   9.998e-01     1.744    -0.000     0.000     18.07
Cl            5.000e-03
   Cl-             5.000e-03   4.630e-03    -2.301    -2.334    -0.033     (0)  
   ZnCl+           1.522e-07   1.409e-07    -6.818    -6.851    -0.033     (0)  
   ZnCl2           1.034e-09   1.034e-09    -8.986    -8.986     0.000     (0)  
   ZnOHCl          1.171e-10   1.171e-10    -9.931    -9.931     0.000     (0)  
   ZnCl3-          4.106e-12   3.801e-12   -11.387   -11.420    -0.033     (0)  
   ZnCl4-2         1.190e-14   8.799e-15   -13.924   -14.056    -0.131     (0)  
H(0)          3.552e-21
   H2              1.776e-21   1.778e-21   -20.751   -20.750     0.001     (0)  
Na            5.000e-03
   Na+             5.000e-03   4.630e-03    -2.301    -2.334    -0.033     (0)  
Nta           2.000e-04
   Zn(Nta)-        1.834e-04   1.698e-04    -3.737    -3.770    -0.033     (0)  
   H(Nta)-2        1.645e-05   1.174e-05    -4.784    -4.930    -0.147     (0)  
   H2(Nta)-        1.771e-07   1.628e-07    -6.752    -6.788    -0.037     (0)  
   ZnOH(Nta)-2     6.390e-10   4.697e-10    -9.195    -9.328    -0.134     (0)  
   H3(Nta)         2.580e-10   2.580e-10    -9.588    -9.588     0.000     (0)  
   Nta-3           7.804e-11   3.905e-11   -10.108   -10.408    -0.301     (0)  
   Zn(Nta)2-4      3.049e-11   8.904e-12   -10.516   -11.050    -0.535     (0)  
   H4(Nta)+        4.449e-14   4.089e-14   -13.352   -13.388    -0.037     (0)  
O(0)          0.000e+00
   O2              0.000e+00   0.000e+00   -50.796   -50.795     0.001     (0)  
Zn            2.000e-04
   Zn(Nta)-        1.834e-04   1.698e-04    -3.737    -3.770    -0.033     (0)  
   Zn+2            1.648e-05   1.211e-05    -4.783    -4.917    -0.134     (0)  
   ZnCl+           1.522e-07   1.409e-07    -6.818    -6.851    -0.033     (0)  
   ZnCl2           1.034e-09   1.034e-09    -8.986    -8.986     0.000     (0)  
   ZnOH+           8.372e-10   7.695e-10    -9.077    -9.114    -0.037     (0)  
   ZnOH(Nta)-2     6.390e-10   4.697e-10    -9.195    -9.328    -0.134     (0)  
   ZnOHCl          1.171e-10   1.171e-10    -9.931    -9.931     0.000     (0)  
   Zn(Nta)2-4      3.049e-11   8.904e-12   -10.516   -11.050    -0.535     (0)  
   ZnCl3-          4.106e-12   3.801e-12   -11.387   -11.420    -0.033     (0)  
   Zn(OH)2         7.747e-14   7.747e-14   -13.111   -13.111     0.000     (0)  
   ZnCl4-2         1.190e-14   8.799e-15   -13.924   -14.056    -0.131     (0)  
   Zn(OH)3-        2.683e-19   2.466e-19   -18.571   -18.608    -0.037     (0)  
   Zn(OH)4-2       8.742e-27   6.237e-27   -26.058   -26.205    -0.147     (0)  

------------------------------Saturation indices-------------------------------

  Phase               SI** log IAP   log K(298 K,   1 atm)

  Halite           -6.27     -4.67    1.60  NaCl
  O2(g)           -47.89     35.20   83.09  O2
  Zincite          -6.65      4.68   11.33  ZnO
  Zn(OH)2          -7.52      4.68   12.20  Zn(OH)2
  Zn(OH)2(am)      -7.79      4.68   12.47  Zn(OH)2
  Zn(OH)2(beta)    -7.07      4.68   11.75  Zn(OH)2
  Zn(OH)2(epsilon)  -6.85      4.68   11.53  Zn(OH)2
  Zn(OH)2(gamma)   -7.05      4.68   11.73  Zn(OH)2
  Zn2(OH)3Cl      -12.96      2.23   15.19  Zn2(OH)3Cl
  Zn5(OH)8Cl2     -29.35      9.15   38.50  Zn5(OH)8Cl2
  ZnCl2           -16.64     -9.59    7.05  ZnCl2
  Znmetal         -38.71    -12.92   25.79  Zn
  ZnO(active)      -6.51      4.68   11.19  ZnO

**For a gas, SI = log10(fugacity). Fugacity = pressure * phi / 1 atm.
  For ideal gases, phi = 1.

------------------
End of simulation.
------------------

-------------------------------------
Reading input data for simulation 13.
-------------------------------------

	SOLUTION 11
	pH		5.0
	Cl		0.005		mol/kgw
	Na		0.005		mol/kgw
	Zn	0.200 	mmol/kgw
	Nta  0.200 	mmol/kgw
	END
-------------------------------------------
Beginning of initial solution calculations.
-------------------------------------------

Initial solution 11.	

-----------------------------Solution composition------------------------------

	Elements           Molality       Moles

	Cl                5.000e-03   5.000e-03
	Na                5.000e-03   5.000e-03
	Nta               2.000e-04   2.000e-04
	Zn                2.000e-04   2.000e-04

----------------------------Description of solution----------------------------

                                       pH  =   5.000    
                                       pe  =   4.000    
                        Activity of water  =   1.000
                 Ionic strength (mol/kgw)  =   5.152e-03
                       Mass of water (kg)  =   1.000e+00
                 Total alkalinity (eq/kg)  =   1.758e-04
                         Temperature (°C)  =  25.00
                  Electrical balance (eq)  =  -1.758e-04
 Percent error, 100*(Cat-|An|)/(Cat+|An|)  =  -1.72
                               Iterations  =   7
                                  Total H  = 1.110137e+02
                                  Total O  = 5.550683e+01

----------------------------Distribution of species----------------------------

                                               Log       Log       Log    mole V
   Species          Molality    Activity  Molality  Activity     Gamma   cm³/mol

   H+              1.080e-05   1.000e-05    -4.967    -5.000    -0.033      0.00
   OH-             1.088e-09   1.007e-09    -8.963    -8.997    -0.034     (0)  
   H2O             5.551e+01   9.998e-01     1.744    -0.000     0.000     18.07
Cl            5.000e-03
   Cl-             5.000e-03   4.630e-03    -2.301    -2.334    -0.033     (0)  
   ZnCl+           1.217e-07   1.127e-07    -6.915    -6.948    -0.033     (0)  
   ZnCl2           8.270e-10   8.270e-10    -9.083    -9.083     0.000     (0)  
   ZnOHCl          1.485e-10   1.485e-10    -9.828    -9.828     0.000     (0)  
   ZnCl3-          3.285e-12   3.042e-12   -11.483   -11.517    -0.033     (0)  
   ZnCl4-2         9.521e-15   7.042e-15   -14.021   -14.152    -0.131     (0)  
H(0)          1.414e-21
   H2              7.071e-22   7.079e-22   -21.151   -21.150     0.001     (0)  
Na            5.000e-03
   Na+             5.000e-03   4.630e-03    -2.301    -2.334    -0.033     (0)  
Nta           2.000e-04
   Zn(Nta)-        1.867e-04   1.729e-04    -3.729    -3.762    -0.033     (0)  
   H(Nta)-2        1.321e-05   9.429e-06    -4.879    -5.026    -0.146     (0)  
   H2(Nta)-        8.976e-08   8.250e-08    -7.047    -7.084    -0.037     (0)  
   ZnOH(Nta)-2     1.031e-09   7.581e-10    -8.987    -9.120    -0.133     (0)  
   Nta-3           9.926e-11   4.971e-11   -10.003   -10.304    -0.300     (0)  
   H3(Nta)         8.250e-11   8.250e-11   -10.084   -10.084     0.000     (0)  
   Zn(Nta)2-4      3.946e-11   1.154e-11   -10.404   -10.938    -0.534     (0)  
   H4(Nta)+        8.976e-15   8.250e-15   -14.047   -14.084    -0.037     (0)  
O(0)          0.000e+00
   O2              0.000e+00   0.000e+00   -49.996   -49.995     0.001     (0)  
Zn            2.000e-04
   Zn(Nta)-        1.867e-04   1.729e-04    -3.729    -3.762    -0.033     (0)  
   Zn+2            1.318e-05   9.690e-06    -4.880    -5.014    -0.133     (0)  
   ZnCl+           1.217e-07   1.127e-07    -6.915    -6.948    -0.033     (0)  
   ZnOH+           1.061e-09   9.755e-10    -8.974    -9.011    -0.037     (0)  
   ZnOH(Nta)-2     1.031e-09   7.581e-10    -8.987    -9.120    -0.133     (0)  
   ZnCl2           8.270e-10   8.270e-10    -9.083    -9.083     0.000     (0)  
   ZnOHCl          1.485e-10   1.485e-10    -9.828    -9.828     0.000     (0)  
   Zn(Nta)2-4      3.946e-11   1.154e-11   -10.404   -10.938    -0.534     (0)  
   ZnCl3-          3.285e-12   3.042e-12   -11.483   -11.517    -0.033     (0)  
   Zn(OH)2         1.557e-13   1.557e-13   -12.808   -12.808     0.000     (0)  
   ZnCl4-2         9.521e-15   7.042e-15   -14.021   -14.152    -0.131     (0)  
   Zn(OH)3-        8.545e-19   7.854e-19   -18.068   -18.105    -0.037     (0)  
   Zn(OH)4-2       4.410e-26   3.148e-26   -25.356   -25.502    -0.146     (0)  

------------------------------Saturation indices-------------------------------

  Phase               SI** log IAP   log K(298 K,   1 atm)

  Halite           -6.27     -4.67    1.60  NaCl
  O2(g)           -47.09     36.00   83.09  O2
  Zincite          -6.35      4.99   11.33  ZnO
  Zn(OH)2          -7.21      4.99   12.20  Zn(OH)2
  Zn(OH)2(am)      -7.49      4.99   12.47  Zn(OH)2
  Zn(OH)2(beta)    -6.77      4.99   11.75  Zn(OH)2
  Zn(OH)2(epsilon)  -6.55      4.99   11.53  Zn(OH)2
  Zn(OH)2(gamma)   -6.75      4.99   11.73  Zn(OH)2
  Zn2(OH)3Cl      -12.55      2.64   15.19  Zn2(OH)3Cl
  Zn5(OH)8Cl2     -28.24     10.26   38.50  Zn5(OH)8Cl2
  ZnCl2           -16.73     -9.68    7.05  ZnCl2
  Znmetal         -38.80    -13.01   25.79  Zn
  ZnO(active)      -6.20      4.99   11.19  ZnO

**For a gas, SI = log10(fugacity). Fugacity = pressure * phi / 1 atm.
  For ideal gases, phi = 1.

------------------
End of simulation.
------------------

-------------------------------------
Reading input data for simulation 14.
-------------------------------------

	SOLUTION 12
	pH		5.2
	Cl		0.005		mol/kgw
	Na		0.005		mol/kgw
	Zn	0.200 	mmol/kgw
	Nta  0.200 	mmol/kgw
	END
-------------------------------------------
Beginning of initial solution calculations.
-------------------------------------------

Initial solution 12.	

-----------------------------Solution composition------------------------------

	Elements           Molality       Moles

	Cl                5.000e-03   5.000e-03
	Na                5.000e-03   5.000e-03
	Nta               2.000e-04   2.000e-04
	Zn                2.000e-04   2.000e-04

----------------------------Description of solution----------------------------

                                       pH  =   5.200    
                                       pe  =   4.000    
                        Activity of water  =   1.000
                 Ionic strength (mol/kgw)  =   5.140e-03
                       Mass of water (kg)  =   1.000e+00
                 Total alkalinity (eq/kg)  =   1.825e-04
                         Temperature (°C)  =  25.00
                  Electrical balance (eq)  =  -1.825e-04
 Percent error, 100*(Cat-|An|)/(Cat+|An|)  =  -1.78
                               Iterations  =   7
                                  Total H  = 1.110137e+02
                                  Total O  = 5.550683e+01

----------------------------Distribution of species----------------------------

                                               Log       Log       Log    mole V
   Species          Molality    Activity  Molality  Activity     Gamma   cm³/mol

   H+              6.813e-06   6.310e-06    -5.167    -5.200    -0.033      0.00
   OH-             1.725e-09   1.596e-09    -8.763    -8.797    -0.034     (0)  
   H2O             5.551e+01   9.998e-01     1.744    -0.000     0.000     18.07
Cl            5.000e-03
   Cl-             5.000e-03   4.630e-03    -2.301    -2.334    -0.033     (0)  
   ZnCl+           9.725e-08   9.005e-08    -7.012    -7.046    -0.033     (0)  
   ZnCl2           6.609e-10   6.609e-10    -9.180    -9.180     0.000     (0)  
   ZnOHCl          1.881e-10   1.881e-10    -9.726    -9.726     0.000     (0)  
   ZnCl3-          2.625e-12   2.431e-12   -11.581   -11.614    -0.033     (0)  
   ZnCl4-2         7.607e-15   5.628e-15   -14.119   -14.250    -0.131     (0)  
H(0)          5.630e-22
   H2              2.815e-22   2.818e-22   -21.551   -21.550     0.001     (0)  
Na            5.000e-03
   Na+             5.000e-03   4.631e-03    -2.301    -2.334    -0.033     (0)  
Nta           2.000e-04
   Zn(Nta)-        1.894e-04   1.754e-04    -3.723    -3.756    -0.033     (0)  
   H(Nta)-2        1.058e-05   7.553e-06    -4.976    -5.122    -0.146     (0)  
   H2(Nta)-        4.536e-08   4.170e-08    -7.343    -7.380    -0.037     (0)  
   ZnOH(Nta)-2     1.657e-09   1.219e-09    -8.781    -8.914    -0.133     (0)  
   Nta-3           1.259e-10   6.312e-11    -9.900   -10.200    -0.300     (0)  
   Zn(Nta)2-4      5.075e-11   1.486e-11   -10.295   -10.828    -0.533     (0)  
   H3(Nta)         2.631e-11   2.631e-11   -10.580   -10.580     0.000     (0)  
   H4(Nta)+        1.806e-15   1.660e-15   -14.743   -14.780    -0.037     (0)  
O(0)          0.000e+00
   O2              0.000e+00   0.000e+00   -49.196   -49.195     0.001     (0)  
Zn            2.000e-04
   Zn(Nta)-        1.894e-04   1.754e-04    -3.723    -3.756    -0.033     (0)  
   Zn+2            1.052e-05   7.742e-06    -4.978    -5.111    -0.133     (0)  
   ZnCl+           9.725e-08   9.005e-08    -7.012    -7.046    -0.033     (0)  
   ZnOH(Nta)-2     1.657e-09   1.219e-09    -8.781    -8.914    -0.133     (0)  
   ZnOH+           1.344e-09   1.235e-09    -8.872    -8.908    -0.037     (0)  
   ZnCl2           6.609e-10   6.609e-10    -9.180    -9.180     0.000     (0)  
   ZnOHCl          1.881e-10   1.881e-10    -9.726    -9.726     0.000     (0)  
   Zn(Nta)2-4      5.075e-11   1.486e-11   -10.295   -10.828    -0.533     (0)  
   ZnCl3-          2.625e-12   2.431e-12   -11.581   -11.614    -0.033     (0)  
   Zn(OH)2         3.124e-13   3.124e-13   -12.505   -12.505     0.000     (0)  
   ZnCl4-2         7.607e-15   5.628e-15   -14.119   -14.250    -0.131     (0)  
   Zn(OH)3-        2.718e-18   2.498e-18   -17.566   -17.602    -0.037     (0)  
   Zn(OH)4-2       2.222e-25   1.587e-25   -24.653   -24.799    -0.146     (0)  

------------------------------Saturation indices-------------------------------

  Phase               SI** log IAP   log K(298 K,   1 atm)

  Halite           -6.27     -4.67    1.60  NaCl
  O2(g)           -46.29     36.80   83.09  O2
  Zincite          -6.05      5.29   11.33  ZnO
  Zn(OH)2          -6.91      5.29   12.20  Zn(OH)2
  Zn(OH)2(am)      -7.19      5.29   12.47  Zn(OH)2
  Zn(OH)2(beta)    -6.47      5.29   11.75  Zn(OH)2
  Zn(OH)2(epsilon)  -6.25      5.29   11.53  Zn(OH)2
  Zn(OH)2(gamma)   -6.45      5.29   11.73  Zn(OH)2
  Zn2(OH)3Cl      -12.15      3.04   15.19  Zn2(OH)3Cl
  Zn5(OH)8Cl2     -27.13     11.37   38.50  Zn5(OH)8Cl2
  ZnCl2           -16.83     -9.78    7.05  ZnCl2
  Znmetal         -38.90    -13.11   25.79  Zn
  ZnO(active)      -5.90      5.29   11.19  ZnO

**For a gas, SI = log10(fugacity). Fugacity = pressure * phi / 1 atm.
  For ideal gases, phi = 1.

------------------
End of simulation.
------------------

-------------------------------------
Reading input data for simulation 15.
-------------------------------------

	SOLUTION 13
	pH		5.4
	Cl		0.005		mol/kgw
	Na		0.005		mol/kgw
	Zn	0.200 	mmol/kgw
	Nta  0.200 	mmol/kgw
	END
-------------------------------------------
Beginning of initial solution calculations.
-------------------------------------------

Initial solution 13.	

-----------------------------Solution composition------------------------------

	Elements           Molality       Moles

	Cl                5.000e-03   5.000e-03
	Na                5.000e-03   5.000e-03
	Nta               2.000e-04   2.000e-04
	Zn                2.000e-04   2.000e-04

----------------------------Description of solution----------------------------

                                       pH  =   5.400    
                                       pe  =   4.000    
                        Activity of water  =   1.000
                 Ionic strength (mol/kgw)  =   5.132e-03
                       Mass of water (kg)  =   1.000e+00
                 Total alkalinity (eq/kg)  =   1.872e-04
                         Temperature (°C)  =  25.00
                  Electrical balance (eq)  =  -1.872e-04
 Percent error, 100*(Cat-|An|)/(Cat+|An|)  =  -1.83
                               Iterations  =   6
                                  Total H  = 1.110137e+02
                                  Total O  = 5.550683e+01

----------------------------Distribution of species----------------------------

                                               Log       Log       Log    mole V
   Species          Molality    Activity  Molality  Activity     Gamma   cm³/mol

   H+              4.298e-06   3.981e-06    -5.367    -5.400    -0.033      0.00
   OH-             2.733e-09   2.529e-09    -8.563    -8.597    -0.034     (0)  
   H2O             5.551e+01   9.998e-01     1.744    -0.000     0.000     18.07
Cl            5.000e-03
   Cl-             5.000e-03   4.631e-03    -2.301    -2.334    -0.033     (0)  
   ZnCl+           7.762e-08   7.188e-08    -7.110    -7.143    -0.033     (0)  
   ZnCl2           5.275e-10   5.275e-10    -9.278    -9.278     0.000     (0)  
   ZnOHCl          2.380e-10   2.380e-10    -9.623    -9.623     0.000     (0)  
   ZnCl3-          2.096e-12   1.940e-12   -11.679   -11.712    -0.033     (0)  
   ZnCl4-2         6.072e-15   4.493e-15   -14.217   -14.347    -0.131     (0)  
H(0)          2.241e-22
   H2              1.121e-22   1.122e-22   -21.951   -21.950     0.001     (0)  
Na            5.000e-03
   Na+             5.000e-03   4.631e-03    -2.301    -2.334    -0.033     (0)  
Nta           2.000e-04
   Zn(Nta)-        1.915e-04   1.774e-04    -3.718    -3.751    -0.033     (0)  
   H(Nta)-2        8.455e-06   6.039e-06    -5.073    -5.219    -0.146     (0)  
   H2(Nta)-        2.288e-08   2.104e-08    -7.640    -7.677    -0.037     (0)  
   ZnOH(Nta)-2     2.655e-09   1.954e-09    -8.576    -8.709    -0.133     (0)  
   Nta-3           1.595e-10   7.998e-11    -9.797   -10.097    -0.300     (0)  
   Zn(Nta)2-4      6.498e-11   1.905e-11   -10.187   -10.720    -0.533     (0)  
   H3(Nta)         8.375e-12   8.375e-12   -11.077   -11.077     0.000     (0)  
   H4(Nta)+        3.627e-16   3.334e-16   -15.440   -15.477    -0.037     (0)  
O(0)          0.000e+00
   O2              0.000e+00   0.000e+00   -48.396   -48.395     0.001     (0)  
Zn            2.000e-04
   Zn(Nta)-        1.915e-04   1.774e-04    -3.718    -3.751    -0.033     (0)  
   Zn+2            8.398e-06   6.179e-06    -5.076    -5.209    -0.133     (0)  
   ZnCl+           7.762e-08   7.188e-08    -7.110    -7.143    -0.033     (0)  
   ZnOH(Nta)-2     2.655e-09   1.954e-09    -8.576    -8.709    -0.133     (0)  
   ZnOH+           1.700e-09   1.563e-09    -8.770    -8.806    -0.037     (0)  
   ZnCl2           5.275e-10   5.275e-10    -9.278    -9.278     0.000     (0)  
   ZnOHCl          2.380e-10   2.380e-10    -9.623    -9.623     0.000     (0)  
   Zn(Nta)2-4      6.498e-11   1.905e-11   -10.187   -10.720    -0.533     (0)  
   ZnCl3-          2.096e-12   1.940e-12   -11.679   -11.712    -0.033     (0)  
   Zn(OH)2         6.263e-13   6.263e-13   -12.203   -12.203     0.000     (0)  
   ZnCl4-2         6.072e-15   4.493e-15   -14.217   -14.347    -0.131     (0)  
   Zn(OH)3-        8.635e-18   7.938e-18   -17.064   -17.100    -0.037     (0)  
   Zn(OH)4-2       1.119e-24   7.992e-25   -23.951   -24.097    -0.146     (0)  

------------------------------Saturation indices-------------------------------

  Phase               SI** log IAP   log K(298 K,   1 atm)

  Halite           -6.27     -4.67    1.60  NaCl
  O2(g)           -45.49     37.60   83.09  O2
  Zincite          -5.74      5.59   11.33  ZnO
  Zn(OH)2          -6.61      5.59   12.20  Zn(OH)2
  Zn(OH)2(am)      -6.88      5.59   12.47  Zn(OH)2
  Zn(OH)2(beta)    -6.16      5.59   11.75  Zn(OH)2
  Zn(OH)2(epsilon)  -5.94      5.59   11.53  Zn(OH)2
  Zn(OH)2(gamma)   -6.14      5.59   11.73  Zn(OH)2
  Zn2(OH)3Cl      -11.74      3.45   15.19  Zn2(OH)3Cl
  Zn5(OH)8Cl2     -26.01     12.49   38.50  Zn5(OH)8Cl2
  ZnCl2           -16.93     -9.88    7.05  ZnCl2
  Znmetal         -39.00    -13.21   25.79  Zn
  ZnO(active)      -5.60      5.59   11.19  ZnO

**For a gas, SI = log10(fugacity). Fugacity = pressure * phi / 1 atm.
  For ideal gases, phi = 1.

------------------
End of simulation.
------------------

-------------------------------------
Reading input data for simulation 16.
-------------------------------------

	SOLUTION 14
	pH		5.6
	Cl		0.005		mol/kgw
	Na		0.005		mol/kgw
	Zn	0.200 	mmol/kgw
	Nta  0.200 	mmol/kgw
	END
-------------------------------------------
Beginning of initial solution calculations.
-------------------------------------------

Initial solution 14.	

-----------------------------Solution composition------------------------------

	Elements           Molality       Moles

	Cl                5.000e-03   5.000e-03
	Na                5.000e-03   5.000e-03
	Nta               2.000e-04   2.000e-04
	Zn                2.000e-04   2.000e-04

----------------------------Description of solution----------------------------

                                       pH  =   5.600    
                                       pe  =   4.000    
                        Activity of water  =   1.000
                 Ionic strength (mol/kgw)  =   5.125e-03
                       Mass of water (kg)  =   1.000e+00
                 Total alkalinity (eq/kg)  =   1.905e-04
                         Temperature (°C)  =  25.00
                  Electrical balance (eq)  =  -1.905e-04
 Percent error, 100*(Cat-|An|)/(Cat+|An|)  =  -1.86
                               Iterations  =   6
                                  Total H  = 1.110137e+02
                                  Total O  = 5.550683e+01

----------------------------Distribution of species----------------------------

                                               Log       Log       Log    mole V
   Species          Molality    Activity  Molality  Activity     Gamma   cm³/mol

   H+              2.712e-06   2.512e-06    -5.567    -5.600    -0.033      0.00
   OH-             4.332e-09   4.008e-09    -8.363    -8.397    -0.034     (0)  
   H2O             5.551e+01   9.998e-01     1.744    -0.000     0.000     18.07
Cl            5.000e-03
   Cl-             5.000e-03   4.631e-03    -2.301    -2.334    -0.033     (0)  
   ZnCl+           6.190e-08   5.732e-08    -7.208    -7.242    -0.033     (0)  
   ZnCl2           4.207e-10   4.207e-10    -9.376    -9.376     0.000     (0)  
   ZnOHCl          3.008e-10   3.008e-10    -9.522    -9.522     0.000     (0)  
   ZnCl3-          1.671e-12   1.548e-12   -11.777   -11.810    -0.033     (0)  
   ZnCl4-2         4.842e-15   3.584e-15   -14.315   -14.446    -0.131     (0)  
H(0)          8.923e-23
   H2              4.462e-23   4.467e-23   -22.351   -22.350     0.001     (0)  
Na            5.000e-03
   Na+             5.000e-03   4.631e-03    -2.301    -2.334    -0.033     (0)  
Nta           2.000e-04
   Zn(Nta)-        1.932e-04   1.790e-04    -3.714    -3.747    -0.033     (0)  
   H(Nta)-2        6.749e-06   4.821e-06    -5.171    -5.317    -0.146     (0)  
   H2(Nta)-        1.153e-08   1.060e-08    -7.938    -7.975    -0.037     (0)  
   ZnOH(Nta)-2     4.245e-09   3.124e-09    -8.372    -8.505    -0.133     (0)  
   Nta-3           2.017e-10   1.012e-10    -9.695    -9.995    -0.300     (0)  
   Zn(Nta)2-4      8.290e-11   2.432e-11   -10.081   -10.614    -0.533     (0)  
   H3(Nta)         2.662e-12   2.662e-12   -11.575   -11.575     0.000     (0)  
   H4(Nta)+        7.272e-17   6.686e-17   -16.138   -16.175    -0.037     (0)  
O(0)          0.000e+00
   O2              0.000e+00   0.000e+00   -47.596   -47.595     0.001     (0)  
Zn            2.000e-04
   Zn(Nta)-        1.932e-04   1.790e-04    -3.714    -3.747    -0.033     (0)  
   Zn+2            6.696e-06   4.928e-06    -5.174    -5.307    -0.133     (0)  
   ZnCl+           6.190e-08   5.732e-08    -7.208    -7.242    -0.033     (0)  
   ZnOH(Nta)-2     4.245e-09   3.124e-09    -8.372    -8.505    -0.133     (0)  
   ZnOH+           2.148e-09   1.975e-09    -8.668    -8.704    -0.037     (0)  
   ZnCl2           4.207e-10   4.207e-10    -9.376    -9.376     0.000     (0)  
   ZnOHCl          3.008e-10   3.008e-10    -9.522    -9.522     0.000     (0)  
   Zn(Nta)2-4      8.290e-11   2.432e-11   -10.081   -10.614    -0.533     (0)  
   ZnCl3-          1.671e-12   1.548e-12   -11.777   -11.810    -0.033     (0)  
   Zn(OH)2         1.255e-12   1.255e-12   -11.902   -11.902     0.000     (0)  
   ZnCl4-2         4.842e-15   3.584e-15   -14.315   -14.446    -0.131     (0)  
   Zn(OH)3-        2.741e-17   2.520e-17   -16.562   -16.599    -0.037     (0)  
   Zn(OH)4-2       5.628e-24   4.021e-24   -23.250   -23.396    -0.146     (0)  

------------------------------Saturation indices-------------------------------

  Phase               SI** log IAP   log K(298 K,   1 atm)

  Halite           -6.27     -4.67    1.60  NaCl
  O2(g)           -44.69     38.40   83.09  O2
  Zincite          -5.44      5.89   11.33  ZnO
  Zn(OH)2          -6.31      5.89   12.20  Zn(OH)2
  Zn(OH)2(am)      -6.58      5.89   12.47  Zn(OH)2
  Zn(OH)2(beta)    -5.86      5.89   11.75  Zn(OH)2
  Zn(OH)2(epsilon)  -5.64      5.89   11.53  Zn(OH)2
  Zn(OH)2(gamma)   -5.84      5.89   11.73  Zn(OH)2
  Zn2(OH)3Cl      -11.34      3.85   15.19  Zn2(OH)3Cl
  Zn5(OH)8Cl2     -24.91     13.59   38.50  Zn5(OH)8Cl2
  ZnCl2           -17.03     -9.98    7.05  ZnCl2
  Znmetal         -39.10    -13.31   25.79  Zn
  ZnO(active)      -5.30      5.89   11.19  ZnO

**For a gas, SI = log10(fugacity). Fugacity = pressure * phi / 1 atm.
  For ideal gases, phi = 1.

------------------
End of simulation.
------------------

-------------------------------------
Reading input data for simulation 17.
-------------------------------------

	SOLUTION 15
	pH		5.8
	Cl		0.005		mol/kgw
	Na		0.005		mol/kgw
	Zn	0.200 	mmol/kgw
	Nta  0.200 	mmol/kgw
	END
-------------------------------------------
Beginning of initial solution calculations.
-------------------------------------------

Initial solution 15.	

-----------------------------Solution composition------------------------------

	Elements           Molality       Moles

	Cl                5.000e-03   5.000e-03
	Na                5.000e-03   5.000e-03
	Nta               2.000e-04   2.000e-04
	Zn                2.000e-04   2.000e-04

----------------------------Description of solution----------------------------

                                       pH  =   5.800    
                                       pe  =   4.000    
                        Activity of water  =   1.000
                 Ionic strength (mol/kgw)  =   5.120e-03
                       Mass of water (kg)  =   1.000e+00
                 Total alkalinity (eq/kg)  =   1.929e-04
                         Temperature (°C)  =  25.00
                  Electrical balance (eq)  =  -1.929e-04
 Percent error, 100*(Cat-|An|)/(Cat+|An|)  =  -1.89
                               Iterations  =   6
                                  Total H  = 1.110137e+02
                                  Total O  = 5.550683e+01

----------------------------Distribution of species----------------------------

                                               Log       Log       Log    mole V
   Species          Molality    Activity  Molality  Activity     Gamma   cm³/mol

   H+              1.711e-06   1.585e-06    -5.767    -5.800    -0.033      0.00
   OH-             6.865e-09   6.352e-09    -8.163    -8.197    -0.034     (0)  
   H2O             5.551e+01   9.998e-01     1.744    -0.000     0.000     18.07
Cl            5.000e-03
   Cl-             5.000e-03   4.631e-03    -2.301    -2.334    -0.033     (0)  
   ZnCl+           4.932e-08   4.568e-08    -7.307    -7.340    -0.033     (0)  
   ZnOHCl          3.798e-10   3.798e-10    -9.420    -9.420     0.000     (0)  
   ZnCl2           3.353e-10   3.353e-10    -9.475    -9.475     0.000     (0)  
   ZnCl3-          1.332e-12   1.233e-12   -11.876   -11.909    -0.033     (0)  
   ZnCl4-2         3.858e-15   2.856e-15   -14.414   -14.544    -0.131     (0)  
H(0)          3.552e-23
   H2              1.776e-23   1.778e-23   -22.751   -22.750     0.001     (0)  
Na            5.000e-03
   Na+             5.000e-03   4.631e-03    -2.301    -2.334    -0.033     (0)  
Nta           2.000e-04
[...]
   ZnOHCl          7.463e-09   7.463e-09    -8.127    -8.127     0.000     (0)  
   ZnCl+           2.435e-10   2.254e-10    -9.614    -9.647    -0.033     (0)  
   ZnCl2           1.654e-12   1.654e-12   -11.781   -11.781     0.000     (0)  
   ZnCl3-          6.571e-15   6.084e-15   -14.182   -14.216    -0.033     (0)  
   ZnCl4-2         1.904e-17   1.409e-17   -16.720   -16.851    -0.131     (0)  
H(0)          2.241e-30
   H2              1.121e-30   1.122e-30   -29.951   -29.950     0.001     (0)  
Na            5.000e-03
   Na+             5.000e-03   4.630e-03    -2.301    -2.334    -0.033     (0)  
Nta           2.000e-04
   Zn(Nta)-        1.754e-04   1.624e-04    -3.756    -3.789    -0.033     (0)  
   ZnOH(Nta)-2     2.432e-05   1.788e-05    -4.614    -4.748    -0.133     (0)  
   H(Nta)-2        2.469e-07   1.763e-07    -6.607    -6.754    -0.146     (0)  
   Nta-3           4.661e-08   2.334e-08    -7.332    -7.632    -0.300     (0)  
   Zn(Nta)2-4      1.740e-08   5.090e-09    -7.759    -8.293    -0.534     (0)  
   H2(Nta)-        6.680e-14   6.140e-14   -13.175   -13.212    -0.037     (0)  
   H3(Nta)         2.444e-21   2.444e-21   -20.612   -20.612     0.000     (0)  
   H4(Nta)+        1.059e-29   9.731e-30   -28.975   -29.012    -0.037     (0)  
O(0)          8.041e-33
   O2              4.020e-33   4.025e-33   -32.396   -32.395     0.001     (0)  
Zn            2.000e-04
   Zn(Nta)-        1.754e-04   1.624e-04    -3.756    -3.789    -0.033     (0)  
   ZnOH(Nta)-2     2.432e-05   1.788e-05    -4.614    -4.748    -0.133     (0)  
   Zn(OH)2         1.964e-07   1.964e-07    -6.707    -6.707     0.000     (0)  
   ZnOH+           5.332e-08   4.901e-08    -7.273    -7.310    -0.037     (0)  
   Zn(OH)3-        2.709e-08   2.490e-08    -7.567    -7.604    -0.037     (0)  
   Zn+2            2.635e-08   1.938e-08    -7.579    -7.713    -0.133     (0)  
   Zn(Nta)2-4      1.740e-08   5.090e-09    -7.759    -8.293    -0.534     (0)  
   ZnOHCl          7.463e-09   7.463e-09    -8.127    -8.127     0.000     (0)  
   ZnCl+           2.435e-10   2.254e-10    -9.614    -9.647    -0.033     (0)  
   Zn(OH)4-2       3.512e-11   2.507e-11   -10.455   -10.601    -0.146     (0)  
   ZnCl2           1.654e-12   1.654e-12   -11.781   -11.781     0.000     (0)  
   ZnCl3-          6.571e-15   6.084e-15   -14.182   -14.216    -0.033     (0)  
   ZnCl4-2         1.904e-17   1.409e-17   -16.720   -16.851    -0.131     (0)  

------------------------------Saturation indices-------------------------------

  Phase               SI** log IAP   log K(298 K,   1 atm)

  Halite           -6.27     -4.67    1.60  NaCl
  O2(g)           -29.49     53.60   83.09  O2
  Zincite          -0.25     11.09   11.33  ZnO
  Zn(OH)2          -1.11     11.09   12.20  Zn(OH)2
  Zn(OH)2(am)      -1.39     11.09   12.47  Zn(OH)2
  Zn(OH)2(beta)    -0.67     11.09   11.75  Zn(OH)2
  Zn(OH)2(epsilon)  -0.45     11.09   11.53  Zn(OH)2
  Zn(OH)2(gamma)   -0.65     11.09   11.73  Zn(OH)2
  Zn2(OH)3Cl       -4.75     10.44   15.19  Zn2(OH)3Cl
  Zn5(OH)8Cl2      -6.53     31.97   38.50  Zn5(OH)8Cl2
  ZnCl2           -19.43    -12.38    7.05  ZnCl2
  Znmetal         -41.50    -15.71   25.79  Zn
  ZnO(active)      -0.10     11.09   11.19  ZnO

**For a gas, SI = log10(fugacity). Fugacity = pressure * phi / 1 atm.
  For ideal gases, phi = 1.

------------------
End of simulation.
------------------

-------------------------------------
Reading input data for simulation 36.
-------------------------------------

	SOLUTION 34
	pH		9.6
	Cl		0.005		mol/kgw
	Na		0.005		mol/kgw
	Zn	0.200 	mmol/kgw
	Nta  0.200 	mmol/kgw
	END
-------------------------------------------
Beginning of initial solution calculations.
-------------------------------------------

Initial solution 34.	

-----------------------------Solution composition------------------------------

	Elements           Molality       Moles

	Cl                5.000e-03   5.000e-03
	Na                5.000e-03   5.000e-03
	Nta               2.000e-04   2.000e-04
	Zn                2.000e-04   2.000e-04

----------------------------Description of solution----------------------------

                                       pH  =   9.600    
                                       pe  =   4.000    
                        Activity of water  =   1.000
                 Ionic strength (mol/kgw)  =   5.177e-03
                       Mass of water (kg)  =   1.000e+00
                 Total alkalinity (eq/kg)  =   2.798e-04
                         Temperature (°C)  =  25.00
                  Electrical balance (eq)  =  -2.798e-04
 Percent error, 100*(Cat-|An|)/(Cat+|An|)  =  -2.72
                               Iterations  =   7
                                  Total H  = 1.110137e+02
                                  Total O  = 5.550691e+01

----------------------------Distribution of species----------------------------

                                               Log       Log       Log    mole V
   Species          Molality    Activity  Molality  Activity     Gamma   cm³/mol

   OH-             4.333e-05   4.008e-05    -4.363    -4.397    -0.034     (0)  
   H+              2.713e-10   2.512e-10    -9.567    -9.600    -0.033      0.00
   H2O             5.551e+01   9.998e-01     1.744    -0.000     0.000     18.07
Cl            5.000e-03
   Cl-             5.000e-03   4.629e-03    -2.301    -2.334    -0.033     (0)  
   ZnOHCl          6.278e-09   6.278e-09    -8.202    -8.202     0.000     (0)  
   ZnCl+           1.293e-10   1.197e-10    -9.889    -9.922    -0.034     (0)  
   ZnCl2           8.779e-13   8.779e-13   -12.057   -12.057     0.000     (0)  
   ZnCl3-          3.487e-15   3.228e-15   -14.457   -14.491    -0.034     (0)  
   ZnCl4-2         1.011e-17   7.473e-18   -16.995   -17.126    -0.131     (0)  
H(0)          8.923e-31
   H2              4.462e-31   4.467e-31   -30.351   -30.350     0.001     (0)  
Na            5.000e-03
   Na+             5.000e-03   4.629e-03    -2.301    -2.334    -0.033     (0)  
Nta           2.000e-04
   Zn(Nta)-        1.636e-04   1.515e-04    -3.786    -3.820    -0.033     (0)  
   ZnOH(Nta)-2     3.598e-05   2.644e-05    -4.444    -4.578    -0.134     (0)  
   H(Nta)-2        2.740e-07   1.954e-07    -6.562    -6.709    -0.147     (0)  
   Nta-3           8.202e-08   4.102e-08    -7.086    -7.387    -0.301     (0)  
   Zn(Nta)2-4      2.860e-08   8.343e-09    -7.544    -8.079    -0.535     (0)  
   H2(Nta)-        4.674e-14   4.295e-14   -13.330   -13.367    -0.037     (0)  
   H3(Nta)         1.079e-21   1.079e-21   -20.967   -20.967     0.000     (0)  
   H4(Nta)+        2.949e-30   2.710e-30   -29.530   -29.567    -0.037     (0)  
O(0)          5.073e-32
   O2              2.537e-32   2.540e-32   -31.596   -31.595     0.001     (0)  
Zn            2.000e-04
   Zn(Nta)-        1.636e-04   1.515e-04    -3.786    -3.820    -0.033     (0)  
   ZnOH(Nta)-2     3.598e-05   2.644e-05    -4.444    -4.578    -0.134     (0)  
   Zn(OH)2         2.620e-07   2.620e-07    -6.582    -6.582     0.000     (0)  
   Zn(OH)3-        5.726e-08   5.262e-08    -7.242    -7.279    -0.037     (0)  
   ZnOH+           4.488e-08   4.124e-08    -7.348    -7.385    -0.037     (0)  
   Zn(Nta)2-4      2.860e-08   8.343e-09    -7.544    -8.079    -0.535     (0)  
   Zn+2            1.400e-08   1.029e-08    -7.854    -7.988    -0.134     (0)  
   ZnOHCl          6.278e-09   6.278e-09    -8.202    -8.202     0.000     (0)  
   ZnCl+           1.293e-10   1.197e-10    -9.889    -9.922    -0.034     (0)  
   Zn(OH)4-2       1.177e-10   8.396e-11    -9.929   -10.076    -0.147     (0)  
   ZnCl2           8.779e-13   8.779e-13   -12.057   -12.057     0.000     (0)  
   ZnCl3-          3.487e-15   3.228e-15   -14.457   -14.491    -0.034     (0)  
   ZnCl4-2         1.011e-17   7.473e-18   -16.995   -17.126    -0.131     (0)  

------------------------------Saturation indices-------------------------------

  Phase               SI** log IAP   log K(298 K,   1 atm)

  Halite           -6.27     -4.67    1.60  NaCl
  O2(g)           -28.69     54.40   83.09  O2
  Zincite          -0.12     11.21   11.33  ZnO
  Zn(OH)2          -0.99     11.21   12.20  Zn(OH)2
  Zn(OH)2(am)      -1.26     11.21   12.47  Zn(OH)2
  Zn(OH)2(beta)    -0.54     11.21   11.75  Zn(OH)2
  Zn(OH)2(epsilon)  -0.32     11.21   11.53  Zn(OH)2
  Zn(OH)2(gamma)   -0.52     11.21   11.73  Zn(OH)2
  Zn2(OH)3Cl       -4.70     10.49   15.19  Zn2(OH)3Cl
  Zn5(OH)8Cl2      -6.31     32.19   38.50  Zn5(OH)8Cl2
  ZnCl2           -19.71    -12.66    7.05  ZnCl2
  Znmetal         -41.78    -15.99   25.79  Zn
  ZnO(active)       0.02     11.21   11.19  ZnO

**For a gas, SI = log10(fugacity). Fugacity = pressure * phi / 1 atm.
  For ideal gases, phi = 1.

------------------
End of simulation.
------------------

-------------------------------------
Reading input data for simulation 37.
-------------------------------------

	SOLUTION 35
	pH		9.8
	Cl		0.005		mol/kgw
	Na		0.005		mol/kgw
	Zn	0.200 	mmol/kgw
	Nta  0.200 	mmol/kgw
	END
-------------------------------------------
Beginning of initial solution calculations.
-------------------------------------------

Initial solution 35.	

-----------------------------Solution composition------------------------------

	Elements           Molality       Moles

	Cl                5.000e-03   5.000e-03
	Na                5.000e-03   5.000e-03
	Nta               2.000e-04   2.000e-04
	Zn                2.000e-04   2.000e-04

----------------------------Description of solution----------------------------

                                       pH  =   9.800    
                                       pe  =   4.000    
                        Activity of water  =   1.000
                 Ionic strength (mol/kgw)  =   5.213e-03
                       Mass of water (kg)  =   1.000e+00
                 Total alkalinity (eq/kg)  =   3.210e-04
                         Temperature (°C)  =  25.00
                  Electrical balance (eq)  =  -3.210e-04
 Percent error, 100*(Cat-|An|)/(Cat+|An|)  =  -3.11
                               Iterations  =   9
                                  Total H  = 1.110138e+02
                                  Total O  = 5.550695e+01

----------------------------Distribution of species----------------------------

                                               Log       Log       Log    mole V
   Species          Molality    Activity  Molality  Activity     Gamma   cm³/mol

   OH-             6.870e-05   6.352e-05    -4.163    -4.197    -0.034     (0)  
   H+              1.712e-10   1.585e-10    -9.766    -9.800    -0.034      0.00
   H2O             5.551e+01   9.998e-01     1.744    -0.000     0.000     18.07
Cl            5.000e-03
   Cl-             5.000e-03   4.628e-03    -2.301    -2.335    -0.034     (0)  
   ZnOHCl          5.061e-09   5.061e-09    -8.296    -8.296     0.000     (0)  
   ZnCl+           6.575e-11   6.085e-11   -10.182   -10.216    -0.034     (0)  
   ZnCl2           4.464e-13   4.464e-13   -12.350   -12.350     0.000     (0)  
   ZnCl3-          1.773e-15   1.641e-15   -14.751   -14.785    -0.034     (0)  
   ZnCl4-2         5.143e-18   3.798e-18   -17.289   -17.420    -0.132     (0)  
H(0)          3.552e-31
   H2              1.776e-31   1.778e-31   -30.751   -30.750     0.001     (0)  
Na            5.000e-03
   Na+             5.000e-03   4.628e-03    -2.301    -2.335    -0.034     (0)  
Nta           2.000e-04
   Zn(Nta)-        1.479e-04   1.369e-04    -3.830    -3.864    -0.034     (0)  
   ZnOH(Nta)-2     5.158e-05   3.787e-05    -4.288    -4.422    -0.134     (0)  
   H(Nta)-2        3.075e-07   2.190e-07    -6.512    -6.660    -0.147     (0)  
   Nta-3           1.460e-07   7.286e-08    -6.836    -7.138    -0.302     (0)  
   Zn(Nta)2-4      4.609e-08   1.339e-08    -7.336    -7.873    -0.537     (0)  
   H2(Nta)-        3.306e-14   3.037e-14   -13.481   -13.518    -0.037     (0)  
   H3(Nta)         4.814e-22   4.814e-22   -21.318   -21.318     0.000     (0)  
   H4(Nta)+        8.304e-31   7.629e-31   -30.081   -30.118    -0.037     (0)  
O(0)          3.201e-31
   O2              1.600e-31   1.602e-31   -30.796   -30.795     0.001     (0)  
Zn            2.000e-04
   Zn(Nta)-        1.479e-04   1.369e-04    -3.830    -3.864    -0.034     (0)  
   ZnOH(Nta)-2     5.158e-05   3.787e-05    -4.288    -4.422    -0.134     (0)  
   Zn(OH)2         3.347e-07   3.347e-07    -6.475    -6.475     0.000     (0)  
   Zn(OH)3-        1.160e-07   1.066e-07    -6.936    -6.972    -0.037     (0)  
   Zn(Nta)2-4      4.609e-08   1.339e-08    -7.336    -7.873    -0.537     (0)  
   ZnOH+           3.619e-08   3.325e-08    -7.441    -7.478    -0.037     (0)  
   Zn+2            7.129e-09   5.234e-09    -8.147    -8.281    -0.134     (0)  
   ZnOHCl          5.061e-09   5.061e-09    -8.296    -8.296     0.000     (0)  
   Zn(OH)4-2       3.783e-10   2.695e-10    -9.422    -9.569    -0.147     (0)  
   ZnCl+           6.575e-11   6.085e-11   -10.182   -10.216    -0.034     (0)  
   ZnCl2           4.464e-13   4.464e-13   -12.350   -12.350     0.000     (0)  
   ZnCl3-          1.773e-15   1.641e-15   -14.751   -14.785    -0.034     (0)  
   ZnCl4-2         5.143e-18   3.798e-18   -17.289   -17.420    -0.132     (0)  

------------------------------Saturation indices-------------------------------

  Phase               SI** log IAP   log K(298 K,   1 atm)

  Halite           -6.27     -4.67    1.60  NaCl
  O2(g)           -27.89     55.20   83.09  O2
  Zincite          -0.02     11.32   11.33  ZnO
  Zn(OH)2          -0.88     11.32   12.20  Zn(OH)2
  Zn(OH)2(am)      -1.16     11.32   12.47  Zn(OH)2
  Zn(OH)2(beta)    -0.44     11.32   11.75  Zn(OH)2
  Zn(OH)2(epsilon)  -0.22     11.32   11.53  Zn(OH)2
  Zn(OH)2(gamma)   -0.42     11.32   11.73  Zn(OH)2
  Zn2(OH)3Cl       -4.69     10.50   15.19  Zn2(OH)3Cl
  Zn5(OH)8Cl2      -6.18     32.32   38.50  Zn5(OH)8Cl2
  ZnCl2           -20.00    -12.95    7.05  ZnCl2
  Znmetal         -42.07    -16.28   25.79  Zn
  ZnO(active)       0.13     11.32   11.19  ZnO

**For a gas, SI = log10(fugacity). Fugacity = pressure * phi / 1 atm.
  For ideal gases, phi = 1.

------------------
End of simulation.
------------------

-------------------------------------
Reading input data for simulation 38.
-------------------------------------

	SOLUTION 36
	pH		10.0
	Cl		0.005		mol/kgw
	Na		0.005		mol/kgw
	Zn	0.200 	mmol/kgw
	Nta  0.200 	mmol/kgw
	END
-------------------------------------------
Beginning of initial solution calculations.
-------------------------------------------

Initial solution 36.	

-----------------------------Solution composition------------------------------

	Elements           Molality       Moles

	Cl                5.000e-03   5.000e-03
	Na                5.000e-03   5.000e-03
	Nta               2.000e-04   2.000e-04
	Zn                2.000e-04   2.000e-04

----------------------------Description of solution----------------------------

                                       pH  =  10.000    
                                       pe  =   4.000    
                        Activity of water  =   1.000
                 Ionic strength (mol/kgw)  =   5.263e-03
                       Mass of water (kg)  =   1.000e+00
                 Total alkalinity (eq/kg)  =   3.811e-04
                         Temperature (°C)  =  25.00
                  Electrical balance (eq)  =  -3.811e-04
 Percent error, 100*(Cat-|An|)/(Cat+|An|)  =  -3.67
                               Iterations  =   7
                                  Total H  = 1.110138e+02
                                  Total O  = 5.550701e+01

----------------------------Distribution of species----------------------------

                                               Log       Log       Log    mole V
   Species          Molality    Activity  Molality  Activity     Gamma   cm³/mol

   OH-             1.089e-04   1.007e-04    -3.963    -3.997    -0.034     (0)  
   H+              1.081e-10   1.000e-10    -9.966   -10.000    -0.034      0.00
   H2O             5.551e+01   9.998e-01     1.744    -0.000     0.000     18.07
Cl            5.000e-03
   Cl-             5.000e-03   4.627e-03    -2.301    -2.335    -0.034     (0)  
   ZnOHCl          3.926e-09   3.926e-09    -8.406    -8.406     0.000     (0)  
   ZnCl+           3.220e-11   2.979e-11   -10.492   -10.526    -0.034     (0)  
   ZnCl2           2.184e-13   2.184e-13   -12.661   -12.661     0.000     (0)  
   ZnCl3-          8.677e-16   8.027e-16   -15.062   -15.095    -0.034     (0)  
   ZnCl4-2         2.518e-18   1.857e-18   -17.599   -17.731    -0.132     (0)  
H(0)          1.414e-31
   H2              7.071e-32   7.079e-32   -31.151   -31.150     0.001     (0)  
Na            5.000e-03
   Na+             5.000e-03   4.627e-03    -2.301    -2.335    -0.034     (0)  
Nta           2.000e-04
   Zn(Nta)-        1.283e-04   1.187e-04    -3.892    -3.926    -0.034     (0)  
   ZnOH(Nta)-2     7.098e-05   5.204e-05    -4.149    -4.284    -0.135     (0)  
   H(Nta)-2        3.441e-07   2.447e-07    -6.463    -6.611    -0.148     (0)  
   Nta-3           2.594e-07   1.290e-07    -6.586    -6.889    -0.303     (0)  
   Zn(Nta)2-4      7.116e-08   2.057e-08    -7.148    -7.687    -0.539     (0)  
   H2(Nta)-        2.332e-14   2.141e-14   -13.632   -13.669    -0.037     (0)  
   H3(Nta)         2.141e-22   2.141e-22   -21.669   -21.669     0.000     (0)  
   H4(Nta)+        2.332e-31   2.141e-31   -30.632   -30.669    -0.037     (0)  
O(0)          2.020e-30
   O2              1.010e-30   1.011e-30   -29.996   -29.995     0.001     (0)  
Zn            2.000e-04
   Zn(Nta)-        1.283e-04   1.187e-04    -3.892    -3.926    -0.034     (0)  
   ZnOH(Nta)-2     7.098e-05   5.204e-05    -4.149    -4.284    -0.135     (0)  
   Zn(OH)2         4.117e-07   4.117e-07    -6.385    -6.385     0.000     (0)  
   Zn(OH)3-        2.262e-07   2.077e-07    -6.645    -6.682    -0.037     (0)  
   Zn(Nta)2-4      7.116e-08   2.057e-08    -7.148    -7.687    -0.539     (0)  
   ZnOH+           2.810e-08   2.580e-08    -7.551    -7.588    -0.037     (0)  
   ZnOHCl          3.926e-09   3.926e-09    -8.406    -8.406     0.000     (0)  
   Zn+2            3.496e-09   2.563e-09    -8.456    -8.591    -0.135     (0)  
   Zn(OH)4-2       1.171e-09   8.326e-10    -8.932    -9.080    -0.148     (0)  
   ZnCl+           3.220e-11   2.979e-11   -10.492   -10.526    -0.034     (0)  
   ZnCl2           2.184e-13   2.184e-13   -12.661   -12.661     0.000     (0)  
   ZnCl3-          8.677e-16   8.027e-16   -15.062   -15.095    -0.034     (0)  
   ZnCl4-2         2.518e-18   1.857e-18   -17.599   -17.731    -0.132     (0)  

------------------------------Saturation indices-------------------------------

  Phase               SI** log IAP   log K(298 K,   1 atm)

  Halite           -6.27     -4.67    1.60  NaCl
  O2(g)           -27.09     56.00   83.09  O2
  Zincite           0.07     11.41   11.33  ZnO
  Zn(OH)2          -0.79     11.41   12.20  Zn(OH)2
  Zn(OH)2(am)      -1.07     11.41   12.47  Zn(OH)2
  Zn(OH)2(beta)    -0.35     11.41   11.75  Zn(OH)2
  Zn(OH)2(epsilon)  -0.13     11.41   11.53  Zn(OH)2
  Zn(OH)2(gamma)   -0.33     11.41   11.73  Zn(OH)2
  Zn2(OH)3Cl       -4.71     10.48   15.19  Zn2(OH)3Cl
  Zn5(OH)8Cl2      -6.13     32.37   38.50  Zn5(OH)8Cl2
  ZnCl2           -20.31    -13.26    7.05  ZnCl2
  Znmetal         -42.38    -16.59   25.79  Zn
  ZnO(active)       0.22     11.41   11.19  ZnO

**For a gas, SI = log10(fugacity). Fugacity = pressure * phi / 1 atm.
  For ideal gases, phi = 1.

------------------
End of simulation.
------------------

-------------------------------------
Reading input data for simulation 39.
-------------------------------------

----------------------------------
End of Run after 0.063697 Seconds.
----------------------------------

