   Input file: /Users/wangjincheng/Desktop/git/irp-jw21/Project_jw21/pqi/0.005ZnEDTA.pqi
  Output file: /Users/wangjincheng/Desktop/git/irp-jw21/Project_jw21/pqo/0.005ZnEDTA.pqi.pqi.out
Database file: /Users/wangjincheng/Desktop/git/irp-jw21/Project_jw21/phreeqc/database/minteq.v4.dat

------------------
Reading data base.
------------------

	SOLUTION_MASTER_SPECIES
	SOLUTION_SPECIES
	SOLUTION_SPECIES
	PHASES
	PHASES
	SURFACE_MASTER_SPECIES
	SURFACE_SPECIES
	END
------------------------------------
Reading input data for simulation 1.
------------------------------------

	DATABASE /Users/wangjincheng/Desktop/git/irp-jw21/Project_jw21/phreeqc/database/minteq.v4.dat
	TITLE 04_SURFACE_COMPLEXATION
	SOLUTION_MASTER_SPECIES
	Zn		Zn+2		0.0	Zn	65.39
	END
-----
TITLE
-----

 04_SURFACE_COMPLEXATION

------------------
End of simulation.
------------------

------------------------------------
Reading input data for simulation 2.
------------------------------------

	SOLUTION_SPECIES
	Zn+2 + Edta-4 = Zn(Edta)-2
	log_k		17.473
	Zn+2 + Edta-4 + H+ = ZnH(Edta)-
	log_k		20.742
	Zn+2 + Edta-4 + H2O = ZnOH(Edta)-3 + H+
	log_k		5.471
	END
------------------
End of simulation.
------------------

------------------------------------
Reading input data for simulation 3.
------------------------------------

	SOLUTION 1
	pH		3.0
	Cl		0.005		mol/kgw
	Na		0.005		mol/kgw
	Zn	0.200 	mmol/kgw
	EDTA  0.200 	mmol/kgw
	END
-------------------------------------------
Beginning of initial solution calculations.
-------------------------------------------

Initial solution 1.	

-----------------------------Solution composition------------------------------

	Elements           Molality       Moles

	Cl                5.000e-03   5.000e-03
	EDTA              2.000e-04   2.000e-04
	Na                5.000e-03   5.000e-03
	Zn                2.000e-04   2.000e-04

----------------------------Description of solution----------------------------

                                       pH  =   3.000    
                                       pe  =   4.000    
                        Activity of water  =   1.000
                 Ionic strength (mol/kgw)  =   5.788e-03
                       Mass of water (kg)  =   1.000e+00
                 Total alkalinity (eq/kg)  =  -8.261e-04
                         Temperature (°C)  =  25.00
                  Electrical balance (eq)  =   8.261e-04
 Percent error, 100*(Cat-|An|)/(Cat+|An|)  =   7.25
                               Iterations  =   8
                                  Total H  = 1.110149e+02
                                  Total O  = 5.550683e+01

----------------------------Distribution of species----------------------------

                                               Log       Log       Log    mole V
   Species          Molality    Activity  Molality  Activity     Gamma   cm³/mol

   H+              1.084e-03   1.000e-03    -2.965    -3.000    -0.035      0.00
   OH-             1.093e-11   1.007e-11   -10.961   -10.997    -0.036     (0)  
   H2O             5.551e+01   9.998e-01     1.744    -0.000     0.000     18.07
Cl            5.000e-03
   Cl-             5.000e-03   4.611e-03    -2.301    -2.336    -0.035     (0)  
   ZnCl+           1.038e-07   9.567e-08    -6.984    -7.019    -0.035     (0)  
   ZnCl2           6.992e-10   6.992e-10    -9.155    -9.155     0.000     (0)  
   ZnCl3-          2.777e-12   2.561e-12   -11.556   -11.592    -0.035     (0)  
   ZnOHCl          1.261e-12   1.261e-12   -11.899   -11.899     0.000     (0)  
   ZnCl4-2         8.112e-15   5.904e-15   -14.091   -14.229    -0.138     (0)  
Edta          2.000e-04
   ZnH(Edta)-      1.118e-04   1.031e-04    -3.952    -3.987    -0.035     (0)  
   Zn(Edta)-2      7.671e-05   5.548e-05    -4.115    -4.256    -0.141     (0)  
   H3(Edta)-       5.407e-06   4.945e-06    -5.267    -5.306    -0.039     (0)  
   H2(Edta)-2      5.375e-06   3.760e-06    -5.270    -5.425    -0.155     (0)  
   H4(Edta)        7.147e-07   7.147e-07    -6.146    -6.146     0.000     (0)  
   H5(Edta)+       2.471e-08   2.260e-08    -7.607    -7.646    -0.039     (0)  
   H(Edta)-3       4.481e-09   2.005e-09    -8.349    -8.698    -0.349     (0)  
   ZnOH(Edta)-3    1.144e-13   5.522e-14   -12.941   -13.258    -0.317     (0)  
   Na(Edta)-3      1.167e-16   5.223e-17   -15.933   -16.282    -0.349     (0)  
   Edta-4          8.258e-17   2.260e-17   -16.083   -16.646    -0.563     (0)  
H(0)          1.414e-17
   H2              7.070e-18   7.079e-18   -17.151   -17.150     0.001     (0)  
Na            5.000e-03
   Na+             5.000e-03   4.611e-03    -2.301    -2.336    -0.035     (0)  
   Na(Edta)-3      1.167e-16   5.223e-17   -15.933   -16.282    -0.349     (0)  
O(0)          0.000e+00
   O2              0.000e+00   0.000e+00   -57.996   -57.995     0.001     (0)  
Zn            2.000e-04
   ZnH(Edta)-      1.118e-04   1.031e-04    -3.952    -3.987    -0.035     (0)  
   Zn(Edta)-2      7.671e-05   5.548e-05    -4.115    -4.256    -0.141     (0)  
   Zn+2            1.142e-05   8.260e-06    -4.942    -5.083    -0.141     (0)  
   ZnCl+           1.038e-07   9.567e-08    -6.984    -7.019    -0.035     (0)  
   ZnCl2           6.992e-10   6.992e-10    -9.155    -9.155     0.000     (0)  
   ZnOH+           9.093e-12   8.316e-12   -11.041   -11.080    -0.039     (0)  
   ZnCl3-          2.777e-12   2.561e-12   -11.556   -11.592    -0.035     (0)  
   ZnOHCl          1.261e-12   1.261e-12   -11.899   -11.899     0.000     (0)  
   ZnOH(Edta)-3    1.144e-13   5.522e-14   -12.941   -13.258    -0.317     (0)  
   ZnCl4-2         8.112e-15   5.904e-15   -14.091   -14.229    -0.138     (0)  
   Zn(OH)2         1.327e-17   1.327e-17   -16.877   -16.877     0.000     (0)  
   Zn(OH)3-        7.321e-25   6.695e-25   -24.135   -24.174    -0.039     (0)  
   Zn(OH)4-2       3.836e-34   2.683e-34   -33.416   -33.571    -0.155     (0)  

------------------------------Saturation indices-------------------------------

  Phase               SI** log IAP   log K(298 K,   1 atm)

  Halite           -6.27     -4.67    1.60  NaCl
  O2(g)           -55.09     28.00   83.09  O2
  Zincite         -10.42      0.92   11.33  ZnO
  Zn(OH)2         -11.28      0.92   12.20  Zn(OH)2
  Zn(OH)2(am)     -11.56      0.92   12.47  Zn(OH)2
  Zn(OH)2(beta)   -10.84      0.92   11.75  Zn(OH)2
  Zn(OH)2(epsilon) -10.62      0.92   11.53  Zn(OH)2
  Zn(OH)2(gamma)  -10.82      0.92   11.73  Zn(OH)2
  Zn2(OH)3Cl      -18.69     -3.50   15.19  Zn2(OH)3Cl
  Zn5(OH)8Cl2     -44.59     -6.09   38.50  Zn5(OH)8Cl2
  ZnCl2           -16.81     -9.76    7.05  ZnCl2
  Znmetal         -38.87    -13.08   25.79  Zn
  ZnO(active)     -10.27      0.92   11.19  ZnO

**For a gas, SI = log10(fugacity). Fugacity = pressure * phi / 1 atm.
  For ideal gases, phi = 1.

------------------
End of simulation.
------------------

------------------------------------
Reading input data for simulation 4.
------------------------------------

	SOLUTION 2
	pH		3.2
	Cl		0.005		mol/kgw
	Na		0.005		mol/kgw
	Zn	0.200 	mmol/kgw
	EDTA  0.200 	mmol/kgw
	END
-------------------------------------------
Beginning of initial solution calculations.
-------------------------------------------

Initial solution 2.	

-----------------------------Solution composition------------------------------

	Elements           Molality       Moles

	Cl                5.000e-03   5.000e-03
	EDTA              2.000e-04   2.000e-04
	Na                5.000e-03   5.000e-03
	Zn                2.000e-04   2.000e-04

----------------------------Description of solution----------------------------

                                       pH  =   3.200    
                                       pe  =   4.000    
                        Activity of water  =   1.000
                 Ionic strength (mol/kgw)  =   5.613e-03
                       Mass of water (kg)  =   1.000e+00
                 Total alkalinity (eq/kg)  =  -3.938e-04
                         Temperature (°C)  =  25.00
                  Electrical balance (eq)  =   3.938e-04
 Percent error, 100*(Cat-|An|)/(Cat+|An|)  =   3.58
                               Iterations  =   8
                                  Total H  = 1.110145e+02
                                  Total O  = 5.550683e+01

----------------------------Distribution of species----------------------------

                                               Log       Log       Log    mole V
   Species          Molality    Activity  Molality  Activity     Gamma   cm³/mol

   H+              6.834e-04   6.310e-04    -3.165    -3.200    -0.035      0.00
   OH-             1.730e-11   1.596e-11   -10.762   -10.797    -0.035     (0)  
   H2O             5.551e+01   9.998e-01     1.744    -0.000     0.000     18.07
Cl            5.000e-03
   Cl-             5.000e-03   4.616e-03    -2.301    -2.336    -0.035     (0)  
   ZnCl+           6.661e-08   6.148e-08    -7.176    -7.211    -0.035     (0)  
   ZnCl2           4.498e-10   4.498e-10    -9.347    -9.347     0.000     (0)  
   ZnCl3-          1.787e-12   1.649e-12   -11.748   -11.783    -0.035     (0)  
   ZnOHCl          1.284e-12   1.284e-12   -11.891   -11.891     0.000     (0)  
   ZnCl4-2         5.208e-15   3.807e-15   -14.283   -14.419    -0.136     (0)  
Edta          2.000e-04
   Zn(Edta)-2      1.002e-04   7.280e-05    -3.999    -4.138    -0.139     (0)  
   ZnH(Edta)-      9.243e-05   8.534e-05    -4.034    -4.069    -0.035     (0)  
   H2(Edta)-2      4.350e-06   3.060e-06    -5.361    -5.514    -0.153     (0)  
   H3(Edta)-       2.773e-06   2.539e-06    -5.557    -5.595    -0.038     (0)  
   H4(Edta)        2.316e-07   2.316e-07    -6.635    -6.635     0.000     (0)  
   H(Edta)-3       5.709e-09   2.586e-09    -8.243    -8.587    -0.344     (0)  
   H5(Edta)+       5.045e-09   4.620e-09    -8.297    -8.335    -0.038     (0)  
   ZnOH(Edta)-3    2.356e-13   1.148e-13   -12.628   -12.940    -0.312     (0)  
   Na(Edta)-3      2.360e-16   1.069e-16   -15.627   -15.971    -0.344     (0)  
   Edta-4          1.658e-16   4.620e-17   -15.780   -16.335    -0.555     (0)  
H(0)          5.629e-18
   H2              2.815e-18   2.818e-18   -17.551   -17.550     0.001     (0)  
Na            5.000e-03
   Na+             5.000e-03   4.616e-03    -2.301    -2.336    -0.035     (0)  
   Na(Edta)-3      2.360e-16   1.069e-16   -15.627   -15.971    -0.344     (0)  
O(0)          0.000e+00
   O2              0.000e+00   0.000e+00   -57.196   -57.195     0.001     (0)  
Zn            2.000e-04
   Zn(Edta)-2      1.002e-04   7.280e-05    -3.999    -4.138    -0.139     (0)  
   ZnH(Edta)-      9.243e-05   8.534e-05    -4.034    -4.069    -0.035     (0)  
   Zn+2            7.298e-06   5.302e-06    -5.137    -5.276    -0.139     (0)  
   ZnCl+           6.661e-08   6.148e-08    -7.176    -7.211    -0.035     (0)  
   ZnCl2           4.498e-10   4.498e-10    -9.347    -9.347     0.000     (0)  
   ZnOH+           9.238e-12   8.460e-12   -11.034   -11.073    -0.038     (0)  
   ZnCl3-          1.787e-12   1.649e-12   -11.748   -11.783    -0.035     (0)  
   ZnOHCl          1.284e-12   1.284e-12   -11.891   -11.891     0.000     (0)  
   ZnOH(Edta)-3    2.356e-13   1.148e-13   -12.628   -12.940    -0.312     (0)  
   ZnCl4-2         5.208e-15   3.807e-15   -14.283   -14.419    -0.136     (0)  
   Zn(OH)2         2.139e-17   2.139e-17   -16.670   -16.670     0.000     (0)  
   Zn(OH)3-        1.868e-24   1.711e-24   -23.729   -23.767    -0.038     (0)  
   Zn(OH)4-2       1.545e-33   1.087e-33   -32.811   -32.964    -0.153     (0)  

------------------------------Saturation indices-------------------------------

  Phase               SI** log IAP   log K(298 K,   1 atm)

  Halite           -6.27     -4.67    1.60  NaCl
  O2(g)           -54.29     28.80   83.09  O2
  Zincite         -10.21      1.12   11.33  ZnO
  Zn(OH)2         -11.08      1.12   12.20  Zn(OH)2
  Zn(OH)2(am)     -11.35      1.12   12.47  Zn(OH)2
  Zn(OH)2(beta)   -10.63      1.12   11.75  Zn(OH)2
  Zn(OH)2(epsilon) -10.41      1.12   11.53  Zn(OH)2
  Zn(OH)2(gamma)  -10.61      1.12   11.73  Zn(OH)2
  Zn2(OH)3Cl      -18.48     -3.29   15.19  Zn2(OH)3Cl
  Zn5(OH)8Cl2     -43.95     -5.45   38.50  Zn5(OH)8Cl2
  ZnCl2           -17.00     -9.95    7.05  ZnCl2
  Znmetal         -39.06    -13.28   25.79  Zn
  ZnO(active)     -10.06      1.12   11.19  ZnO

**For a gas, SI = log10(fugacity). Fugacity = pressure * phi / 1 atm.
  For ideal gases, phi = 1.

------------------
End of simulation.
------------------

------------------------------------
Reading input data for simulation 5.
------------------------------------

	SOLUTION 3
	pH		3.4
	Cl		0.005		mol/kgw
	Na		0.005		mol/kgw
	Zn	0.200 	mmol/kgw
	EDTA  0.200 	mmol/kgw
	END
-------------------------------------------
Beginning of initial solution calculations.
-------------------------------------------

Initial solution 3.	

-----------------------------Solution composition------------------------------

	Elements           Molality       Moles

	Cl                5.000e-03   5.000e-03
	EDTA              2.000e-04   2.000e-04
	Na                5.000e-03   5.000e-03
	Zn                2.000e-04   2.000e-04

----------------------------Description of solution----------------------------

                                       pH  =   3.400    
                                       pe  =   4.000    
                        Activity of water  =   1.000
                 Ionic strength (mol/kgw)  =   5.515e-03
                       Mass of water (kg)  =   1.000e+00
                 Total alkalinity (eq/kg)  =  -1.138e-04
                         Temperature (°C)  =  25.00
                  Electrical balance (eq)  =   1.138e-04
 Percent error, 100*(Cat-|An|)/(Cat+|An|)  =   1.06
                               Iterations  =   8
                                  Total H  = 1.110142e+02
                                  Total O  = 5.550683e+01

----------------------------Distribution of species----------------------------

                                               Log       Log       Log    mole V
   Species          Molality    Activity  Molality  Activity     Gamma   cm³/mol

   H+              4.309e-04   3.981e-04    -3.366    -3.400    -0.034      0.00
   OH-             2.740e-11   2.529e-11   -10.562   -10.597    -0.035     (0)  
   H2O             5.551e+01   9.998e-01     1.744    -0.000     0.000     18.07
Cl            5.000e-03
   Cl-             5.000e-03   4.619e-03    -2.301    -2.335    -0.034     (0)  
   ZnCl+           4.284e-08   3.957e-08    -7.368    -7.403    -0.035     (0)  
   ZnCl2           2.897e-10   2.897e-10    -9.538    -9.538     0.000     (0)  
   ZnOHCl          1.310e-12   1.310e-12   -11.883   -11.883     0.000     (0)  
   ZnCl3-          1.151e-12   1.063e-12   -11.939   -11.974    -0.035     (0)  
   ZnCl4-2         3.350e-15   2.455e-15   -14.475   -14.610    -0.135     (0)  
Edta          2.000e-04
   Zn(Edta)-2      1.233e-04   8.984e-05    -3.909    -4.047    -0.138     (0)  
   ZnH(Edta)-      7.193e-05   6.645e-05    -4.143    -4.178    -0.034     (0)  
   H2(Edta)-2      3.312e-06   2.337e-06    -5.480    -5.631    -0.152     (0)  
   H3(Edta)-       1.335e-06   1.224e-06    -5.874    -5.912    -0.038     (0)  
   H4(Edta)        7.041e-08   7.041e-08    -7.152    -7.152     0.000     (0)  
   H(Edta)-3       6.863e-09   3.131e-09    -8.163    -8.504    -0.341     (0)  
   H5(Edta)+       9.672e-10   8.864e-10    -9.014    -9.052    -0.038     (0)  
   ZnOH(Edta)-3    4.583e-13   2.246e-13   -12.339   -12.649    -0.310     (0)  
   Na(Edta)-3      4.499e-16   2.052e-16   -15.347   -15.688    -0.341     (0)  
   Edta-4          3.150e-16   8.864e-17   -15.502   -16.052    -0.551     (0)  
H(0)          2.241e-18
   H2              1.121e-18   1.122e-18   -17.951   -17.950     0.001     (0)  
Na            5.000e-03
   Na+             5.000e-03   4.619e-03    -2.301    -2.335    -0.034     (0)  
   Na(Edta)-3      4.499e-16   2.052e-16   -15.347   -15.688    -0.341     (0)  
O(0)          0.000e+00
   O2              0.000e+00   0.000e+00   -56.396   -56.395     0.001     (0)  
Zn            2.000e-04
   Zn(Edta)-2      1.233e-04   8.984e-05    -3.909    -4.047    -0.138     (0)  
   ZnH(Edta)-      7.193e-05   6.645e-05    -4.143    -4.178    -0.034     (0)  
   Zn+2            4.683e-06   3.411e-06    -5.330    -5.467    -0.138     (0)  
   ZnCl+           4.284e-08   3.957e-08    -7.368    -7.403    -0.035     (0)  
   ZnCl2           2.897e-10   2.897e-10    -9.538    -9.538     0.000     (0)  
   ZnOH+           9.411e-12   8.625e-12   -11.026   -11.064    -0.038     (0)  
   ZnOHCl          1.310e-12   1.310e-12   -11.883   -11.883     0.000     (0)  
   ZnCl3-          1.151e-12   1.063e-12   -11.939   -11.974    -0.035     (0)  
   ZnOH(Edta)-3    4.583e-13   2.246e-13   -12.339   -12.649    -0.310     (0)  
   ZnCl4-2         3.350e-15   2.455e-15   -14.475   -14.610    -0.135     (0)  
   Zn(OH)2         3.457e-17   3.457e-17   -16.461   -16.461     0.000     (0)  
   Zn(OH)3-        4.781e-24   4.381e-24   -23.321   -23.358    -0.038     (0)  
   Zn(OH)4-2       6.252e-33   4.411e-33   -32.204   -32.355    -0.152     (0)  

------------------------------Saturation indices-------------------------------

  Phase               SI** log IAP   log K(298 K,   1 atm)

  Halite           -6.27     -4.67    1.60  NaCl
  O2(g)           -53.49     29.60   83.09  O2
  Zincite         -10.00      1.33   11.33  ZnO
  Zn(OH)2         -10.87      1.33   12.20  Zn(OH)2
  Zn(OH)2(am)     -11.14      1.33   12.47  Zn(OH)2
  Zn(OH)2(beta)   -10.42      1.33   11.75  Zn(OH)2
  Zn(OH)2(epsilon) -10.20      1.33   11.53  Zn(OH)2
  Zn(OH)2(gamma)  -10.40      1.33   11.73  Zn(OH)2
  Zn2(OH)3Cl      -18.26     -3.07   15.19  Zn2(OH)3Cl
  Zn5(OH)8Cl2     -43.31     -4.81   38.50  Zn5(OH)8Cl2
  ZnCl2           -17.19    -10.14    7.05  ZnCl2
  Znmetal         -39.26    -13.47   25.79  Zn
  ZnO(active)      -9.86      1.33   11.19  ZnO

**For a gas, SI = log10(fugacity). Fugacity = pressure * phi / 1 atm.
  For ideal gases, phi = 1.

------------------
End of simulation.
------------------

------------------------------------
Reading input data for simulation 6.
------------------------------------

	SOLUTION 4
	pH		3.6
	Cl		0.005		mol/kgw
	Na		0.005		mol/kgw
	Zn	0.200 	mmol/kgw
	EDTA  0.200 	mmol/kgw
	END
-------------------------------------------
Beginning of initial solution calculations.
-------------------------------------------

Initial solution 4.	

-----------------------------Solution composition------------------------------

	Elements           Molality       Moles

	Cl                5.000e-03   5.000e-03
	EDTA              2.000e-04   2.000e-04
	Na                5.000e-03   5.000e-03
	Zn                2.000e-04   2.000e-04

----------------------------Description of solution----------------------------

                                       pH  =   3.600    
                                       pe  =   4.000    
                        Activity of water  =   1.000
                 Ionic strength (mol/kgw)  =   5.461e-03
                       Mass of water (kg)  =   1.000e+00
                 Total alkalinity (eq/kg)  =   6.847e-05
                         Temperature (°C)  =  25.00
                  Electrical balance (eq)  =  -6.847e-05
 Percent error, 100*(Cat-|An|)/(Cat+|An|)  =  -0.64
                               Iterations  =   9
                                  Total H  = 1.110140e+02
                                  Total O  = 5.550683e+01

----------------------------Distribution of species----------------------------

                                               Log       Log       Log    mole V
   Species          Molality    Activity  Molality  Activity     Gamma   cm³/mol

   H+              2.718e-04   2.512e-04    -3.566    -3.600    -0.034      0.00
   OH-             4.342e-11   4.008e-11   -10.362   -10.397    -0.035     (0)  
   H2O             5.551e+01   9.998e-01     1.744    -0.000     0.000     18.07
Cl            5.000e-03
   Cl-             5.000e-03   4.621e-03    -2.301    -2.335    -0.034     (0)  
   ZnCl+           2.753e-08   2.544e-08    -7.560    -7.595    -0.034     (0)  
   ZnCl2           1.863e-10   1.863e-10    -9.730    -9.730     0.000     (0)  
   ZnOHCl          1.335e-12   1.335e-12   -11.875   -11.875     0.000     (0)  
   ZnCl3-          7.400e-13   6.837e-13   -12.131   -12.165    -0.034     (0)  
   ZnCl4-2         2.153e-15   1.580e-15   -14.667   -14.801    -0.134     (0)  
Edta          2.000e-04
   Zn(Edta)-2      1.439e-04   1.050e-04    -3.842    -3.979    -0.137     (0)  
   ZnH(Edta)-      5.302e-05   4.900e-05    -4.276    -4.310    -0.034     (0)  
   H2(Edta)-2      2.394e-06   1.692e-06    -5.621    -5.772    -0.151     (0)  
   H3(Edta)-       6.097e-07   5.590e-07    -6.215    -6.253    -0.038     (0)  
   H4(Edta)        2.030e-08   2.030e-08    -7.693    -7.693     0.000     (0)  
   H(Edta)-3       7.846e-09   3.593e-09    -8.105    -8.445    -0.339     (0)  
   H5(Edta)+       1.758e-10   1.612e-10    -9.755    -9.793    -0.038     (0)  
   ZnOH(Edta)-3    8.461e-13   4.160e-13   -12.073   -12.381    -0.308     (0)  
   Na(Edta)-3      8.154e-16   3.734e-16   -15.089   -15.428    -0.339     (0)  
   Edta-4          5.697e-16   1.612e-16   -15.244   -15.793    -0.548     (0)  
H(0)          8.922e-19
   H2              4.461e-19   4.467e-19   -18.351   -18.350     0.001     (0)  
Na            5.000e-03
   Na+             5.000e-03   4.621e-03    -2.301    -2.335    -0.034     (0)  
   Na(Edta)-3      8.154e-16   3.734e-16   -15.089   -15.428    -0.339     (0)  
O(0)          0.000e+00
   O2              0.000e+00   0.000e+00   -55.596   -55.595     0.001     (0)  
Zn            2.000e-04
   Zn(Edta)-2      1.439e-04   1.050e-04    -3.842    -3.979    -0.137     (0)  
   ZnH(Edta)-      5.302e-05   4.900e-05    -4.276    -4.310    -0.034     (0)  
   Zn+2            3.005e-06   2.192e-06    -5.522    -5.659    -0.137     (0)  
   ZnCl+           2.753e-08   2.544e-08    -7.560    -7.595    -0.034     (0)  
   ZnCl2           1.863e-10   1.863e-10    -9.730    -9.730     0.000     (0)  
   ZnOH+           9.580e-12   8.783e-12   -11.019   -11.056    -0.038     (0)  
   ZnOHCl          1.335e-12   1.335e-12   -11.875   -11.875     0.000     (0)  
   ZnOH(Edta)-3    8.461e-13   4.160e-13   -12.073   -12.381    -0.308     (0)  
   ZnCl3-          7.400e-13   6.837e-13   -12.131   -12.165    -0.034     (0)  
   ZnCl4-2         2.153e-15   1.580e-15   -14.667   -14.801    -0.134     (0)  
   Zn(OH)2         5.579e-17   5.579e-17   -16.253   -16.253     0.000     (0)  
   Zn(OH)3-        1.222e-23   1.121e-23   -22.913   -22.950    -0.038     (0)  
   Zn(OH)4-2       2.530e-32   1.788e-32   -31.597   -31.748    -0.151     (0)  

------------------------------Saturation indices-------------------------------

  Phase               SI** log IAP   log K(298 K,   1 atm)

  Halite           -6.27     -4.67    1.60  NaCl
  O2(g)           -52.69     30.40   83.09  O2
  Zincite          -9.79      1.54   11.33  ZnO
  Zn(OH)2         -10.66      1.54   12.20  Zn(OH)2
  Zn(OH)2(am)     -10.93      1.54   12.47  Zn(OH)2
  Zn(OH)2(beta)   -10.21      1.54   11.75  Zn(OH)2
  Zn(OH)2(epsilon)  -9.99      1.54   11.53  Zn(OH)2
  Zn(OH)2(gamma)  -10.19      1.54   11.73  Zn(OH)2
  Zn2(OH)3Cl      -18.05     -2.85   15.19  Zn2(OH)3Cl
  Zn5(OH)8Cl2     -42.67     -4.17   38.50  Zn5(OH)8Cl2
  ZnCl2           -17.38    -10.33    7.05  ZnCl2
  Znmetal         -39.45    -13.66   25.79  Zn
  ZnO(active)      -9.65      1.54   11.19  ZnO

**For a gas, SI = log10(fugacity). Fugacity = pressure * phi / 1 atm.
  For ideal gases, phi = 1.

------------------
End of simulation.
------------------

------------------------------------
Reading input data for simulation 7.
------------------------------------

	SOLUTION 5
	pH		3.8
	Cl		0.005		mol/kgw
	Na		0.005		mol/kgw
	Zn	0.200 	mmol/kgw
	EDTA  0.200 	mmol/kgw
	END
-------------------------------------------
Beginning of initial solution calculations.
-------------------------------------------

Initial solution 5.	

-----------------------------Solution composition------------------------------

	Elements           Molality       Moles

	Cl                5.000e-03   5.000e-03
	EDTA              2.000e-04   2.000e-04
	Na                5.000e-03   5.000e-03
	Zn                2.000e-04   2.000e-04

----------------------------Description of solution----------------------------

                                       pH  =   3.800    
                                       pe  =   4.000    
                        Activity of water  =   1.000
                 Ionic strength (mol/kgw)  =   5.433e-03
                       Mass of water (kg)  =   1.000e+00
                 Total alkalinity (eq/kg)  =   1.870e-04
                         Temperature (°C)  =  25.00
                  Electrical balance (eq)  =  -1.870e-04
 Percent error, 100*(Cat-|An|)/(Cat+|An|)  =  -1.77
                               Iterations  =   9
                                  Total H  = 1.110139e+02
                                  Total O  = 5.550683e+01

----------------------------Distribution of species----------------------------

                                               Log       Log       Log    mole V
   Species          Molality    Activity  Molality  Activity     Gamma   cm³/mol

   H+              1.715e-04   1.585e-04    -3.766    -3.800    -0.034      0.00
   OH-             6.880e-11   6.352e-11   -10.162   -10.197    -0.035     (0)  
   H2O             5.551e+01   9.998e-01     1.744    -0.000     0.000     18.07
Cl            5.000e-03
   Cl-             5.000e-03   4.622e-03    -2.301    -2.335    -0.034     (0)  
   ZnCl+           1.764e-08   1.630e-08    -7.754    -7.788    -0.034     (0)  
   ZnCl2           1.194e-10   1.194e-10    -9.923    -9.923     0.000     (0)  
   ZnOHCl          1.356e-12   1.356e-12   -11.868   -11.868     0.000     (0)  
   ZnCl3-          4.743e-13   4.383e-13   -12.324   -12.358    -0.034     (0)  
   ZnCl4-2         1.379e-15   1.013e-15   -14.860   -14.994    -0.134     (0)  
Edta          2.000e-04
   Zn(Edta)-2      1.607e-04   1.173e-04    -3.794    -3.931    -0.137     (0)  
   ZnH(Edta)-      3.736e-05   3.454e-05    -4.428    -4.462    -0.034     (0)  
   H2(Edta)-2      1.660e-06   1.174e-06    -5.780    -5.930    -0.150     (0)  
   H3(Edta)-       2.669e-07   2.448e-07    -6.574    -6.611    -0.038     (0)  
   H(Edta)-3       8.614e-09   3.952e-09    -8.065    -8.403    -0.338     (0)  
   H4(Edta)        5.608e-09   5.608e-09    -8.251    -8.251     0.000     (0)  
   H5(Edta)+       3.065e-11   2.811e-11   -10.514   -10.551    -0.038     (0)  
   ZnOH(Edta)-3    1.496e-12   7.365e-13   -11.825   -12.133    -0.308     (0)  
   Na(Edta)-3      1.419e-15   6.511e-16   -14.848   -15.186    -0.338     (0)  
   Edta-4          9.902e-16   2.811e-16   -15.004   -15.551    -0.547     (0)  
H(0)          3.552e-19
   H2              1.776e-19   1.778e-19   -18.751   -18.750     0.001     (0)  
Na            5.000e-03
   Na+             5.000e-03   4.622e-03    -2.301    -2.335    -0.034     (0)  
   Na(Edta)-3      1.419e-15   6.511e-16   -14.848   -15.186    -0.338     (0)  
O(0)          0.000e+00
   O2              0.000e+00   0.000e+00   -54.796   -54.795     0.001     (0)  
Zn            2.000e-04
   Zn(Edta)-2      1.607e-04   1.173e-04    -3.794    -3.931    -0.137     (0)  
   ZnH(Edta)-      3.736e-05   3.454e-05    -4.428    -4.462    -0.034     (0)  
   Zn+2            1.924e-06   1.404e-06    -5.716    -5.853    -0.137     (0)  
   ZnCl+           1.764e-08   1.630e-08    -7.754    -7.788    -0.034     (0)  
   ZnCl2           1.194e-10   1.194e-10    -9.923    -9.923     0.000     (0)  
   ZnOH+           9.726e-12   8.920e-12   -11.012   -11.050    -0.038     (0)  
   ZnOH(Edta)-3    1.496e-12   7.365e-13   -11.825   -12.133    -0.308     (0)  
   ZnOHCl          1.356e-12   1.356e-12   -11.868   -11.868     0.000     (0)  
   ZnCl3-          4.743e-13   4.383e-13   -12.324   -12.358    -0.034     (0)  
   ZnCl4-2         1.379e-15   1.013e-15   -14.860   -14.994    -0.134     (0)  
   Zn(OH)2         8.980e-17   8.980e-17   -16.047   -16.047     0.000     (0)  
   Zn(OH)3-        3.117e-23   2.859e-23   -22.506   -22.544    -0.038     (0)  
   Zn(OH)4-2       1.022e-31   7.230e-32   -30.990   -31.141    -0.150     (0)  

------------------------------Saturation indices-------------------------------

  Phase               SI** log IAP   log K(298 K,   1 atm)

  Halite           -6.27     -4.67    1.60  NaCl
  O2(g)           -51.89     31.20   83.09  O2
  Zincite          -9.59      1.75   11.33  ZnO
  Zn(OH)2         -10.45      1.75   12.20  Zn(OH)2
  Zn(OH)2(am)     -10.73      1.75   12.47  Zn(OH)2
  Zn(OH)2(beta)   -10.01      1.75   11.75  Zn(OH)2
  Zn(OH)2(epsilon)  -9.79      1.75   11.53  Zn(OH)2
  Zn(OH)2(gamma)   -9.99      1.75   11.73  Zn(OH)2
  Zn2(OH)3Cl      -17.83     -2.64   15.19  Zn2(OH)3Cl
  Zn5(OH)8Cl2     -42.03     -3.53   38.50  Zn5(OH)8Cl2
  ZnCl2           -17.57    -10.52    7.05  ZnCl2
  Znmetal         -39.64    -13.85   25.79  Zn
  ZnO(active)      -9.44      1.75   11.19  ZnO

**For a gas, SI = log10(fugacity). Fugacity = pressure * phi / 1 atm.
  For ideal gases, phi = 1.

------------------
End of simulation.
------------------

------------------------------------
Reading input data for simulation 8.
------------------------------------

	SOLUTION 6
	pH		4.0
	Cl		0.005		mol/kgw
	Na		0.005		mol/kgw
	Zn	0.200 	mmol/kgw
	EDTA  0.200 	mmol/kgw
	END
-------------------------------------------
Beginning of initial solution calculations.
-------------------------------------------

Initial solution 6.	

-----------------------------Solution composition------------------------------

	Elements           Molality       Moles

	Cl                5.000e-03   5.000e-03
	EDTA              2.000e-04   2.000e-04
	Na                5.000e-03   5.000e-03
	Zn                2.000e-04   2.000e-04

----------------------------Description of solution----------------------------

                                       pH  =   4.000    
                                       pe  =   4.000    
                        Activity of water  =   1.000
                 Ionic strength (mol/kgw)  =   5.418e-03
                       Mass of water (kg)  =   1.000e+00
                 Total alkalinity (eq/kg)  =   2.638e-04
                         Temperature (°C)  =  25.00
                  Electrical balance (eq)  =  -2.638e-04
 Percent error, 100*(Cat-|An|)/(Cat+|An|)  =  -2.52
                               Iterations  =   9
                                  Total H  = 1.110138e+02
                                  Total O  = 5.550683e+01

----------------------------Distribution of species----------------------------

                                               Log       Log       Log    mole V
   Species          Molality    Activity  Molality  Activity     Gamma   cm³/mol

   H+              1.082e-04   1.000e-04    -3.966    -4.000    -0.034      0.00
   OH-             1.090e-10   1.007e-10    -9.962    -9.997    -0.035     (0)  
   H2O             5.551e+01   9.998e-01     1.744    -0.000     0.000     18.07
Cl            5.000e-03
   Cl-             5.000e-03   4.622e-03    -2.301    -2.335    -0.034     (0)  
   ZnCl+           1.127e-08   1.041e-08    -7.948    -7.982    -0.034     (0)  
   ZnCl2           7.629e-11   7.629e-11   -10.118   -10.118     0.000     (0)  
   ZnOHCl          1.373e-12   1.373e-12   -11.862   -11.862     0.000     (0)  
   ZnCl3-          3.031e-13   2.801e-13   -12.518   -12.553    -0.034     (0)  
   ZnCl4-2         8.813e-16   6.474e-16   -15.055   -15.189    -0.134     (0)  
Edta          2.000e-04
   Zn(Edta)-2      1.733e-04   1.266e-04    -3.761    -3.898    -0.137     (0)  
   ZnH(Edta)-      2.544e-05   2.351e-05    -4.595    -4.629    -0.034     (0)  
   H2(Edta)-2      1.116e-06   7.897e-07    -5.952    -6.103    -0.150     (0)  
   H3(Edta)-       1.132e-07   1.039e-07    -6.946    -6.984    -0.038     (0)  
   H(Edta)-3       9.170e-09   4.212e-09    -8.038    -8.376    -0.338     (0)  
   H4(Edta)        1.501e-09   1.501e-09    -8.824    -8.824     0.000     (0)  
   H5(Edta)+       5.176e-12   4.748e-12   -11.286   -11.324    -0.038     (0)  
   ZnOH(Edta)-3    2.556e-12   1.260e-12   -11.593   -11.900    -0.307     (0)  
   Na(Edta)-3      2.394e-15   1.100e-15   -14.621   -14.959    -0.338     (0)  
   Edta-4          1.670e-15   4.748e-16   -14.777   -15.324    -0.546     (0)  
H(0)          1.414e-19
   H2              7.071e-20   7.079e-20   -19.151   -19.150     0.001     (0)  
Na            5.000e-03
   Na+             5.000e-03   4.622e-03    -2.301    -2.335    -0.034     (0)  
   Na(Edta)-3      2.394e-15   1.100e-15   -14.621   -14.959    -0.338     (0)  
O(0)          0.000e+00
   O2              0.000e+00   0.000e+00   -53.996   -53.995     0.001     (0)  
Zn            2.000e-04
   Zn(Edta)-2      1.733e-04   1.266e-04    -3.761    -3.898    -0.137     (0)  
   ZnH(Edta)-      2.544e-05   2.351e-05    -4.595    -4.629    -0.034     (0)  
   Zn+2            1.229e-06   8.971e-07    -5.911    -6.047    -0.137     (0)  
   ZnCl+           1.127e-08   1.041e-08    -7.948    -7.982    -0.034     (0)  
   ZnCl2           7.629e-11   7.629e-11   -10.118   -10.118     0.000     (0)  
   ZnOH+           9.847e-12   9.031e-12   -11.007   -11.044    -0.038     (0)  
   ZnOH(Edta)-3    2.556e-12   1.260e-12   -11.593   -11.900    -0.307     (0)  
   ZnOHCl          1.373e-12   1.373e-12   -11.862   -11.862     0.000     (0)  
   ZnCl3-          3.031e-13   2.801e-13   -12.518   -12.553    -0.034     (0)  
   ZnCl4-2         8.813e-16   6.474e-16   -15.055   -15.189    -0.134     (0)  
   Zn(OH)2         1.441e-16   1.441e-16   -15.841   -15.841     0.000     (0)  
   Zn(OH)3-        7.928e-23   7.271e-23   -22.101   -22.138    -0.038     (0)  
   Zn(OH)4-2       4.118e-31   2.914e-31   -30.385   -30.535    -0.150     (0)  

------------------------------Saturation indices-------------------------------

  Phase               SI** log IAP   log K(298 K,   1 atm)

  Halite           -6.27     -4.67    1.60  NaCl
  O2(g)           -51.09     32.00   83.09  O2
  Zincite          -9.38      1.95   11.33  ZnO
  Zn(OH)2         -10.25      1.95   12.20  Zn(OH)2
  Zn(OH)2(am)     -10.52      1.95   12.47  Zn(OH)2
  Zn(OH)2(beta)    -9.80      1.95   11.75  Zn(OH)2
  Zn(OH)2(epsilon)  -9.58      1.95   11.53  Zn(OH)2
  Zn(OH)2(gamma)   -9.78      1.95   11.73  Zn(OH)2
  Zn2(OH)3Cl      -17.62     -2.43   15.19  Zn2(OH)3Cl
  Zn5(OH)8Cl2     -41.41     -2.91   38.50  Zn5(OH)8Cl2
  ZnCl2           -17.77    -10.72    7.05  ZnCl2
  Znmetal         -39.84    -14.05   25.79  Zn
  ZnO(active)      -9.24      1.95   11.19  ZnO

**For a gas, SI = log10(fugacity). Fugacity = pressure * phi / 1 atm.
  For ideal gases, phi = 1.

------------------
End of simulation.
------------------

------------------------------------
Reading input data for simulation 9.
------------------------------------

	SOLUTION 7
	pH		4.2
	Cl		0.005		mol/kgw
	Na		0.005		mol/kgw
	Zn	0.200 	mmol/kgw
	EDTA  0.200 	mmol/kgw
	END
-------------------------------------------
Beginning of initial solution calculations.
-------------------------------------------

Initial solution 7.	

-----------------------------Solution composition------------------------------

	Elements           Molality       Moles

	Cl                5.000e-03   5.000e-03
	EDTA              2.000e-04   2.000e-04
	Na                5.000e-03   5.000e-03
	Zn                2.000e-04   2.000e-04

----------------------------Description of solution----------------------------

                                       pH  =   4.200    
                                       pe  =   4.000    
                        Activity of water  =   1.000
                 Ionic strength (mol/kgw)  =   5.410e-03
                       Mass of water (kg)  =   1.000e+00
                 Total alkalinity (eq/kg)  =   3.132e-04
                         Temperature (°C)  =  25.00
                  Electrical balance (eq)  =  -3.132e-04
 Percent error, 100*(Cat-|An|)/(Cat+|An|)  =  -3.00
                               Iterations  =   9
                                  Total H  = 1.110138e+02
                                  Total O  = 5.550683e+01

----------------------------Distribution of species----------------------------

                                               Log       Log       Log    mole V
   Species          Molality    Activity  Molality  Activity     Gamma   cm³/mol

   H+              6.825e-05   6.310e-05    -4.166    -4.200    -0.034      0.00
   OH-             1.728e-10   1.596e-10    -9.762    -9.797    -0.035     (0)  
   H2O             5.551e+01   9.998e-01     1.744    -0.000     0.000     18.07
Cl            5.000e-03
   Cl-             5.000e-03   4.622e-03    -2.301    -2.335    -0.034     (0)  
   ZnCl+           7.183e-09   6.638e-09    -8.144    -8.178    -0.034     (0)  
   ZnCl2           4.863e-11   4.863e-11   -10.313   -10.313     0.000     (0)  
   ZnOHCl          1.387e-12   1.387e-12   -11.858   -11.858     0.000     (0)  
   ZnCl3-          1.932e-13   1.786e-13   -12.714   -12.748    -0.034     (0)  
   ZnCl4-2         5.617e-16   4.127e-16   -15.250   -15.384    -0.134     (0)  
Edta          2.000e-04
   Zn(Edta)-2      1.823e-04   1.332e-04    -3.739    -3.876    -0.136     (0)  
   ZnH(Edta)-      1.688e-05   1.561e-05    -4.773    -4.807    -0.034     (0)  
   H2(Edta)-2      7.332e-07   5.190e-07    -6.135    -6.285    -0.150     (0)  
   H3(Edta)-       4.695e-08   4.307e-08    -7.328    -7.366    -0.038     (0)  
   H(Edta)-3       9.545e-09   4.387e-09    -8.020    -8.358    -0.338     (0)  
   H4(Edta)        3.928e-10   3.928e-10    -9.406    -9.406     0.000     (0)  
   ZnOH(Edta)-3    4.259e-12   2.100e-12   -11.371   -11.678    -0.307     (0)  
   H5(Edta)+       8.544e-13   7.837e-13   -12.068   -12.106    -0.038     (0)  
   Na(Edta)-3      3.950e-15   1.816e-15   -14.403   -14.741    -0.338     (0)  
   Edta-4          2.754e-15   7.837e-16   -14.560   -15.106    -0.546     (0)  
H(0)          5.630e-20
   H2              2.815e-20   2.818e-20   -19.551   -19.550     0.001     (0)  
Na            5.000e-03
   Na+             5.000e-03   4.622e-03    -2.301    -2.335    -0.034     (0)  
   Na(Edta)-3      3.950e-15   1.816e-15   -14.403   -14.741    -0.338     (0)  
O(0)          0.000e+00
   O2              0.000e+00   0.000e+00   -53.196   -53.195     0.001     (0)  
Zn            2.000e-04
   Zn(Edta)-2      1.823e-04   1.332e-04    -3.739    -3.876    -0.136     (0)  
   ZnH(Edta)-      1.688e-05   1.561e-05    -4.773    -4.807    -0.034     (0)  
   Zn+2            7.829e-07   5.718e-07    -6.106    -6.243    -0.136     (0)  
   ZnCl+           7.183e-09   6.638e-09    -8.144    -8.178    -0.034     (0)  
   ZnCl2           4.863e-11   4.863e-11   -10.313   -10.313     0.000     (0)  
   ZnOH+           9.946e-12   9.123e-12   -11.002   -11.040    -0.038     (0)  
   ZnOH(Edta)-3    4.259e-12   2.100e-12   -11.371   -11.678    -0.307     (0)  
   ZnOHCl          1.387e-12   1.387e-12   -11.858   -11.858     0.000     (0)  
   ZnCl3-          1.932e-13   1.786e-13   -12.714   -12.748    -0.034     (0)  
   ZnCl4-2         5.617e-16   4.127e-16   -15.250   -15.384    -0.134     (0)  
   Zn(OH)2         2.307e-16   2.307e-16   -15.637   -15.637     0.000     (0)  
   Zn(OH)3-        2.011e-22   1.845e-22   -21.696   -21.734    -0.038     (0)  
   Zn(OH)4-2       1.656e-30   1.172e-30   -29.781   -29.931    -0.150     (0)  

------------------------------Saturation indices-------------------------------

  Phase               SI** log IAP   log K(298 K,   1 atm)

  Halite           -6.27     -4.67    1.60  NaCl
  O2(g)           -50.29     32.80   83.09  O2
  Zincite          -9.18      2.16   11.33  ZnO
  Zn(OH)2         -10.04      2.16   12.20  Zn(OH)2
  Zn(OH)2(am)     -10.32      2.16   12.47  Zn(OH)2
  Zn(OH)2(beta)    -9.60      2.16   11.75  Zn(OH)2
  Zn(OH)2(epsilon)  -9.38      2.16   11.53  Zn(OH)2
  Zn(OH)2(gamma)   -9.58      2.16   11.73  Zn(OH)2
  Zn2(OH)3Cl      -17.41     -2.22   15.19  Zn2(OH)3Cl
  Zn5(OH)8Cl2     -40.78     -2.28   38.50  Zn5(OH)8Cl2
  ZnCl2           -17.96    -10.91    7.05  ZnCl2
  Znmetal         -40.03    -14.24   25.79  Zn
  ZnO(active)      -9.03      2.16   11.19  ZnO

**For a gas, SI = log10(fugacity). Fugacity = pressure * phi / 1 atm.
  For ideal gases, phi = 1.

------------------
End of simulation.
------------------

-------------------------------------
Reading input data for simulation 10.
-------------------------------------

	SOLUTION 8
	pH		4.4
	Cl		0.005		mol/kgw
	Na		0.005		mol/kgw
	Zn	0.200 	mmol/kgw
	EDTA  0.200 	mmol/kgw
	END
-------------------------------------------
Beginning of initial solution calculations.
-------------------------------------------

Initial solution 8.	

-----------------------------Solution composition------------------------------

	Elements           Molality       Moles

	Cl                5.000e-03   5.000e-03
	EDTA              2.000e-04   2.000e-04
	Na                5.000e-03   5.000e-03
	Zn                2.000e-04   2.000e-04

----------------------------Description of solution----------------------------

                                       pH  =   4.400    
                                       pe  =   4.000    
                        Activity of water  =   1.000
                 Ionic strength (mol/kgw)  =   5.406e-03
                       Mass of water (kg)  =   1.000e+00
                 Total alkalinity (eq/kg)  =   3.449e-04
                         Temperature (°C)  =  25.00
                  Electrical balance (eq)  =  -3.449e-04
 Percent error, 100*(Cat-|An|)/(Cat+|An|)  =  -3.31
                               Iterations  =   9
                                  Total H  = 1.110137e+02
                                  Total O  = 5.550683e+01

----------------------------Distribution of species----------------------------

                                               Log       Log       Log    mole V
   Species          Molality    Activity  Molality  Activity     Gamma   cm³/mol

   H+              4.306e-05   3.981e-05    -4.366    -4.400    -0.034      0.00
   OH-             2.738e-10   2.529e-10    -9.562    -9.597    -0.035     (0)  
   H2O             5.551e+01   9.998e-01     1.744    -0.000     0.000     18.07
Cl            5.000e-03
   Cl-             5.000e-03   4.622e-03    -2.301    -2.335    -0.034     (0)  
   ZnCl+           4.573e-09   4.227e-09    -8.340    -8.374    -0.034     (0)  
   ZnCl2           3.096e-11   3.096e-11   -10.509   -10.509     0.000     (0)  
   ZnOHCl          1.399e-12   1.399e-12   -11.854   -11.854     0.000     (0)  
   ZnCl3-          1.230e-13   1.137e-13   -12.910   -12.944    -0.034     (0)  
   ZnCl4-2         3.576e-16   2.628e-16   -15.447   -15.580    -0.134     (0)  
Edta          2.000e-04
   Zn(Edta)-2      1.885e-04   1.377e-04    -3.725    -3.861    -0.136     (0)  
   ZnH(Edta)-      1.101e-05   1.018e-05    -4.958    -4.992    -0.034     (0)  
   H2(Edta)-2      4.739e-07   3.355e-07    -6.324    -6.474    -0.150     (0)  
   H3(Edta)-       1.915e-08   1.757e-08    -7.718    -7.755    -0.037     (0)  
   H(Edta)-3       9.777e-09   4.495e-09    -8.010    -8.347    -0.337     (0)  
   H4(Edta)        1.011e-10   1.011e-10    -9.995    -9.995     0.000     (0)  
   ZnOH(Edta)-3    6.978e-12   3.442e-12   -11.156   -11.463    -0.307     (0)  
   H5(Edta)+       1.387e-13   1.273e-13   -12.858   -12.895    -0.037     (0)  
   Na(Edta)-3      6.413e-15   2.948e-15   -14.193   -14.530    -0.337     (0)  
   Edta-4          4.471e-15   1.273e-15   -14.350   -14.895    -0.546     (0)  
H(0)          2.241e-20
   H2              1.121e-20   1.122e-20   -19.951   -19.950     0.001     (0)  
Na            5.000e-03
   Na+             5.000e-03   4.622e-03    -2.301    -2.335    -0.034     (0)  
   Na(Edta)-3      6.413e-15   2.948e-15   -14.193   -14.530    -0.337     (0)  
O(0)          0.000e+00
   O2              0.000e+00   0.000e+00   -52.396   -52.395     0.001     (0)  
Zn            2.000e-04
   Zn(Edta)-2      1.885e-04   1.377e-04    -3.725    -3.861    -0.136     (0)  
   ZnH(Edta)-      1.101e-05   1.018e-05    -4.958    -4.992    -0.034     (0)  
   Zn+2            4.984e-07   3.640e-07    -6.302    -6.439    -0.136     (0)  
   ZnCl+           4.573e-09   4.227e-09    -8.340    -8.374    -0.034     (0)  
   ZnCl2           3.096e-11   3.096e-11   -10.509   -10.509     0.000     (0)  
   ZnOH+           1.004e-11   9.206e-12   -10.998   -11.036    -0.037     (0)  
   ZnOH(Edta)-3    6.978e-12   3.442e-12   -11.156   -11.463    -0.307     (0)  
   ZnOHCl          1.399e-12   1.399e-12   -11.854   -11.854     0.000     (0)  
   ZnCl3-          1.230e-13   1.137e-13   -12.910   -12.944    -0.034     (0)  
   Zn(OH)2         3.690e-16   3.690e-16   -15.433   -15.433     0.000     (0)  
   ZnCl4-2         3.576e-16   2.628e-16   -15.447   -15.580    -0.134     (0)  
   Zn(OH)3-        5.098e-22   4.676e-22   -21.293   -21.330    -0.037     (0)  
   Zn(OH)4-2       6.650e-30   4.708e-30   -29.177   -29.327    -0.150     (0)  

------------------------------Saturation indices-------------------------------

  Phase               SI** log IAP   log K(298 K,   1 atm)

  Halite           -6.27     -4.67    1.60  NaCl
  O2(g)           -49.49     33.60   83.09  O2
  Zincite          -8.97      2.36   11.33  ZnO
  Zn(OH)2          -9.84      2.36   12.20  Zn(OH)2
  Zn(OH)2(am)     -10.11      2.36   12.47  Zn(OH)2
  Zn(OH)2(beta)    -9.39      2.36   11.75  Zn(OH)2
  Zn(OH)2(epsilon)  -9.17      2.36   11.53  Zn(OH)2
  Zn(OH)2(gamma)   -9.37      2.36   11.73  Zn(OH)2
  Zn2(OH)3Cl      -17.20     -2.01   15.19  Zn2(OH)3Cl
  Zn5(OH)8Cl2     -40.17     -1.67   38.50  Zn5(OH)8Cl2
  ZnCl2           -18.16    -11.11    7.05  ZnCl2
  Znmetal         -40.23    -14.44   25.79  Zn
  ZnO(active)      -8.83      2.36   11.19  ZnO

**For a gas, SI = log10(fugacity). Fugacity = pressure * phi / 1 atm.
  For ideal gases, phi = 1.

------------------
End of simulation.
------------------

-------------------------------------
Reading input data for simulation 11.
-------------------------------------

	SOLUTION 9
	pH		4.6
	Cl		0.005		mol/kgw
	Na		0.005		mol/kgw
	Zn	0.200 	mmol/kgw
	EDTA  0.200 	mmol/kgw
	END
-------------------------------------------
Beginning of initial solution calculations.
-------------------------------------------

Initial solution 9.	

-----------------------------Solution composition------------------------------

	Elements           Molality       Moles

	Cl                5.000e-03   5.000e-03
	EDTA              2.000e-04   2.000e-04
	Na                5.000e-03   5.000e-03
	Zn                2.000e-04   2.000e-04

----------------------------Description of solution----------------------------

                                       pH  =   4.600    
                                       pe  =   4.000    
                        Activity of water  =   1.000
                 Ionic strength (mol/kgw)  =   5.404e-03
                       Mass of water (kg)  =   1.000e+00
                 Total alkalinity (eq/kg)  =   3.651e-04
                         Temperature (°C)  =  25.00
                  Electrical balance (eq)  =  -3.651e-04
 Percent error, 100*(Cat-|An|)/(Cat+|An|)  =  -3.50
                               Iterations  =  10
                                  Total H  = 1.110137e+02
                                  Total O  = 5.550683e+01

----------------------------Distribution of species----------------------------

                                               Log       Log       Log    mole V
   Species          Molality    Activity  Molality  Activity     Gamma   cm³/mol

   H+              2.717e-05   2.512e-05    -4.566    -4.600    -0.034      0.00
   OH-             4.340e-10   4.008e-10    -9.363    -9.397    -0.035     (0)  
   H2O             5.551e+01   9.998e-01     1.744    -0.000     0.000     18.07
Cl            5.000e-03
   Cl-             5.000e-03   4.622e-03    -2.301    -2.335    -0.034     (0)  
   ZnCl+           2.912e-09   2.692e-09    -8.536    -8.570    -0.034     (0)  
   ZnCl2           1.972e-11   1.972e-11   -10.705   -10.705     0.000     (0)  
   ZnOHCl          1.413e-12   1.413e-12   -11.850   -11.850     0.000     (0)  
   ZnCl3-          7.834e-14   7.241e-14   -13.106   -13.140    -0.034     (0)  
   ZnCl4-2         2.278e-16   1.674e-16   -15.643   -15.776    -0.134     (0)  
Edta          2.000e-04
   Zn(Edta)-2      1.926e-04   1.407e-04    -3.715    -3.852    -0.136     (0)  
   ZnH(Edta)-      7.101e-06   6.565e-06    -5.149    -5.183    -0.034     (0)  
   H2(Edta)-2      3.027e-07   2.143e-07    -6.519    -6.669    -0.150     (0)  
   H(Edta)-3       9.896e-09   4.550e-09    -8.005    -8.342    -0.337     (0)  
   H3(Edta)-       7.718e-09   7.080e-09    -8.112    -8.150    -0.037     (0)  
   H4(Edta)        2.571e-11   2.571e-11   -10.590   -10.590     0.000     (0)  
   ZnOH(Edta)-3    1.130e-11   5.574e-12   -10.947   -11.254    -0.307     (0)  
   H5(Edta)+       2.226e-14   2.042e-14   -13.652   -13.690    -0.037     (0)  
   Na(Edta)-3      1.029e-14   4.730e-15   -13.988   -14.325    -0.337     (0)  
   Edta-4          7.171e-15   2.042e-15   -14.144   -14.690    -0.546     (0)  
H(0)          8.923e-21
   H2              4.461e-21   4.467e-21   -20.351   -20.350     0.001     (0)  
Na            5.000e-03
   Na+             5.000e-03   4.622e-03    -2.301    -2.335    -0.034     (0)  
   Na(Edta)-3      1.029e-14   4.730e-15   -13.988   -14.325    -0.337     (0)  
O(0)          0.000e+00
   O2              0.000e+00   0.000e+00   -51.596   -51.595     0.001     (0)  
Zn            2.000e-04
   Zn(Edta)-2      1.926e-04   1.407e-04    -3.715    -3.852    -0.136     (0)  
   ZnH(Edta)-      7.101e-06   6.565e-06    -5.149    -5.183    -0.034     (0)  
   Zn+2            3.174e-07   2.318e-07    -6.498    -6.635    -0.136     (0)  
   ZnCl+           2.912e-09   2.692e-09    -8.536    -8.570    -0.034     (0)  
   ZnCl2           1.972e-11   1.972e-11   -10.705   -10.705     0.000     (0)  
   ZnOH(Edta)-3    1.130e-11   5.574e-12   -10.947   -11.254    -0.307     (0)  
   ZnOH+           1.013e-11   9.292e-12   -10.994   -11.032    -0.037     (0)  
   ZnOHCl          1.413e-12   1.413e-12   -11.850   -11.850     0.000     (0)  
   ZnCl3-          7.834e-14   7.241e-14   -13.106   -13.140    -0.034     (0)  
   Zn(OH)2         5.903e-16   5.903e-16   -15.229   -15.229     0.000     (0)  
   ZnCl4-2         2.278e-16   1.674e-16   -15.643   -15.776    -0.134     (0)  
   Zn(OH)3-        1.293e-21   1.186e-21   -20.889   -20.926    -0.037     (0)  
   Zn(OH)4-2       2.672e-29   1.892e-29   -28.573   -28.723    -0.150     (0)  

------------------------------Saturation indices-------------------------------

  Phase               SI** log IAP   log K(298 K,   1 atm)

  Halite           -6.27     -4.67    1.60  NaCl
  O2(g)           -48.69     34.40   83.09  O2
  Zincite          -8.77      2.57   11.33  ZnO
  Zn(OH)2          -9.63      2.57   12.20  Zn(OH)2
  Zn(OH)2(am)      -9.91      2.57   12.47  Zn(OH)2
  Zn(OH)2(beta)    -9.19      2.57   11.75  Zn(OH)2
  Zn(OH)2(epsilon)  -8.97      2.57   11.53  Zn(OH)2
  Zn(OH)2(gamma)   -9.17      2.57   11.73  Zn(OH)2
  Zn2(OH)3Cl      -17.00     -1.80   15.19  Zn2(OH)3Cl
  Zn5(OH)8Cl2     -39.54     -1.04   38.50  Zn5(OH)8Cl2
  ZnCl2           -18.36    -11.31    7.05  ZnCl2
  Znmetal         -40.42    -14.63   25.79  Zn
  ZnO(active)      -8.62      2.57   11.19  ZnO

**For a gas, SI = log10(fugacity). Fugacity = pressure * phi / 1 atm.
  For ideal gases, phi = 1.

------------------
End of simulation.
------------------

-------------------------------------
Reading input data for simulation 12.
-------------------------------------

	SOLUTION 10
	pH		4.8
	Cl		0.005		mol/kgw
	Na		0.005		mol/kgw
	Zn	0.200 	mmol/kgw
	EDTA  0.200 	mmol/kgw
	END
-------------------------------------------
Beginning of initial solution calculations.
-------------------------------------------

Initial solution 10.	

-----------------------------Solution composition------------------------------

	Elements           Molality       Moles

	Cl                5.000e-03   5.000e-03
	EDTA              2.000e-04   2.000e-04
	Na                5.000e-03   5.000e-03
	Zn                2.000e-04   2.000e-04

----------------------------Description of solution----------------------------

                                       pH  =   4.800    
                                       pe  =   4.000    
                        Activity of water  =   1.000
                 Ionic strength (mol/kgw)  =   5.402e-03
                       Mass of water (kg)  =   1.000e+00
                 Total alkalinity (eq/kg)  =   3.779e-04
                         Temperature (°C)  =  25.00
                  Electrical balance (eq)  =  -3.779e-04
 Percent error, 100*(Cat-|An|)/(Cat+|An|)  =  -3.63
                               Iterations  =  10
                                  Total H  = 1.110137e+02
                                  Total O  = 5.550683e+01

----------------------------Distribution of species----------------------------

                                               Log       Log       Log    mole V
   Species          Molality    Activity  Molality  Activity     Gamma   cm³/mol

   H+              1.714e-05   1.585e-05    -4.766    -4.800    -0.034      0.00
   OH-             6.878e-10   6.352e-10    -9.163    -9.197    -0.035     (0)  
   H2O             5.551e+01   9.998e-01     1.744    -0.000     0.000     18.07
Cl            5.000e-03
   Cl-             5.000e-03   4.622e-03    -2.301    -2.335    -0.034     (0)  
   ZnCl+           1.859e-09   1.718e-09    -8.731    -8.765    -0.034     (0)  
   ZnCl2           1.259e-11   1.259e-11   -10.900   -10.900     0.000     (0)  
   ZnOHCl          1.429e-12   1.429e-12   -11.845   -11.845     0.000     (0)  
   ZnCl3-          5.000e-14   4.622e-14   -13.301   -13.335    -0.034     (0)  
   ZnCl4-2         1.454e-16   1.068e-16   -15.838   -15.971    -0.134     (0)  
Edta          2.000e-04
   Zn(Edta)-2      1.953e-04   1.426e-04    -3.709    -3.846    -0.136     (0)  
   ZnH(Edta)-      4.543e-06   4.200e-06    -5.343    -5.377    -0.034     (0)  
   H2(Edta)-2      1.914e-07   1.355e-07    -6.718    -6.868    -0.150     (0)  
   H(Edta)-3       9.918e-09   4.561e-09    -8.004    -8.341    -0.337     (0)  
   H3(Edta)-       3.080e-09   2.825e-09    -8.511    -8.549    -0.037     (0)  
   ZnOH(Edta)-3    1.815e-11   8.957e-12   -10.741   -11.048    -0.307     (0)  
   H4(Edta)        6.472e-12   6.472e-12   -11.189   -11.189     0.000     (0)  
   Na(Edta)-3      1.634e-14   7.515e-15   -13.787   -14.124    -0.337     (0)  
   Edta-4          1.139e-14   3.244e-15   -13.943   -14.489    -0.545     (0)  
   H5(Edta)+       3.536e-15   3.244e-15   -14.451   -14.489    -0.037     (0)  
H(0)          3.552e-21
   H2              1.776e-21   1.778e-21   -20.751   -20.750     0.001     (0)  
Na            5.000e-03
   Na+             5.000e-03   4.622e-03    -2.301    -2.335    -0.034     (0)  
   Na(Edta)-3      1.634e-14   7.515e-15   -13.787   -14.124    -0.337     (0)  
O(0)          0.000e+00
   O2              0.000e+00   0.000e+00   -50.796   -50.795     0.001     (0)  
Zn            2.000e-04
   Zn(Edta)-2      1.953e-04   1.426e-04    -3.709    -3.846    -0.136     (0)  
   ZnH(Edta)-      4.543e-06   4.200e-06    -5.343    -5.377    -0.034     (0)  
   Zn+2            2.026e-07   1.480e-07    -6.693    -6.830    -0.136     (0)  
   ZnCl+           1.859e-09   1.718e-09    -8.731    -8.765    -0.034     (0)  
   ZnOH(Edta)-3    1.815e-11   8.957e-12   -10.741   -11.048    -0.307     (0)  
   ZnCl2           1.259e-11   1.259e-11   -10.900   -10.900     0.000     (0)  
   ZnOH+           1.025e-11   9.399e-12   -10.989   -11.027    -0.037     (0)  
   ZnOHCl          1.429e-12   1.429e-12   -11.845   -11.845     0.000     (0)  
   ZnCl3-          5.000e-14   4.622e-14   -13.301   -13.335    -0.034     (0)  
   Zn(OH)2         9.463e-16   9.463e-16   -15.024   -15.024     0.000     (0)  
   ZnCl4-2         1.454e-16   1.068e-16   -15.838   -15.971    -0.134     (0)  
   Zn(OH)3-        3.284e-21   3.013e-21   -20.484   -20.521    -0.037     (0)  
   Zn(OH)4-2       1.076e-28   7.618e-29   -27.968   -28.118    -0.150     (0)  

------------------------------Saturation indices-------------------------------

  Phase               SI** log IAP   log K(298 K,   1 atm)

  Halite           -6.27     -4.67    1.60  NaCl
  O2(g)           -47.89     35.20   83.09  O2
  Zincite          -8.56      2.77   11.33  ZnO
  Zn(OH)2          -9.43      2.77   12.20  Zn(OH)2
  Zn(OH)2(am)      -9.70      2.77   12.47  Zn(OH)2
  Zn(OH)2(beta)    -8.98      2.77   11.75  Zn(OH)2
  Zn(OH)2(epsilon)  -8.76      2.77   11.53  Zn(OH)2
  Zn(OH)2(gamma)   -8.96      2.77   11.73  Zn(OH)2
  Zn2(OH)3Cl      -16.79     -1.60   15.19  Zn2(OH)3Cl
  Zn5(OH)8Cl2     -38.92     -0.42   38.50  Zn5(OH)8Cl2
  ZnCl2           -18.55    -11.50    7.05  ZnCl2
  Znmetal         -40.62    -14.83   25.79  Zn
  ZnO(active)      -8.42      2.77   11.19  ZnO

**For a gas, SI = log10(fugacity). Fugacity = pressure * phi / 1 atm.
  For ideal gases, phi = 1.

------------------
End of simulation.
------------------

-------------------------------------
Reading input data for simulation 13.
-------------------------------------

	SOLUTION 11
	pH		5.0
	Cl		0.005		mol/kgw
	Na		0.005		mol/kgw
	Zn	0.200 	mmol/kgw
	EDTA  0.200 	mmol/kgw
	END
-------------------------------------------
Beginning of initial solution calculations.
-------------------------------------------

Initial solution 11.	

-----------------------------Solution composition------------------------------

	Elements           Molality       Moles

	Cl                5.000e-03   5.000e-03
	EDTA              2.000e-04   2.000e-04
	Na                5.000e-03   5.000e-03
	Zn                2.000e-04   2.000e-04

----------------------------Description of solution----------------------------

                                       pH  =   5.000    
                                       pe  =   4.000    
                        Activity of water  =   1.000
                 Ionic strength (mol/kgw)  =   5.401e-03
                       Mass of water (kg)  =   1.000e+00
                 Total alkalinity (eq/kg)  =   3.860e-04
                         Temperature (°C)  =  25.00
                  Electrical balance (eq)  =  -3.860e-04
 Percent error, 100*(Cat-|An|)/(Cat+|An|)  =  -3.71
                               Iterations  =  10
                                  Total H  = 1.110137e+02
                                  Total O  = 5.550683e+01

----------------------------Distribution of species----------------------------

                                               Log       Log       Log    mole V
   Species          Molality    Activity  Molality  Activity     Gamma   cm³/mol

   H+              1.082e-05   1.000e-05    -4.966    -5.000    -0.034      0.00
   OH-             1.090e-09   1.007e-09    -8.963    -8.997    -0.035     (0)  
   H2O             5.551e+01   9.998e-01     1.744    -0.000     0.000     18.07
Cl            5.000e-03
   Cl-             5.000e-03   4.623e-03    -2.301    -2.335    -0.034     (0)  
   ZnCl+           1.191e-09   1.101e-09    -8.924    -8.958    -0.034     (0)  
   ZnCl2           8.067e-12   8.067e-12   -11.093   -11.093     0.000     (0)  
   ZnOHCl          1.451e-12   1.451e-12   -11.838   -11.838     0.000     (0)  
   ZnCl3-          3.205e-14   2.962e-14   -13.494   -13.528    -0.034     (0)  
   ZnCl4-2         9.317e-17   6.847e-17   -16.031   -16.165    -0.134     (0)  
Edta          2.000e-04
   Zn(Edta)-2      1.970e-04   1.439e-04    -3.706    -3.842    -0.136     (0)  
   ZnH(Edta)-      2.892e-06   2.673e-06    -5.539    -5.573    -0.034     (0)  
   H2(Edta)-2      1.200e-07   8.494e-08    -6.921    -7.071    -0.150     (0)  
   H(Edta)-3       9.850e-09   4.530e-09    -8.007    -8.344    -0.337     (0)  
   H3(Edta)-       1.218e-09   1.117e-09    -8.914    -8.952    -0.037     (0)  
   ZnOH(Edta)-3    2.903e-11   1.432e-11   -10.537   -10.844    -0.307     (0)  
   H4(Edta)        1.615e-12   1.615e-12   -11.792   -11.792     0.000     (0)  
   Na(Edta)-3      2.572e-14   1.183e-14   -13.590   -13.927    -0.337     (0)  
   Edta-4          1.793e-14   5.106e-15   -13.746   -14.292    -0.545     (0)  
   H5(Edta)+       5.566e-16   5.106e-16   -15.254   -15.292    -0.037     (0)  
H(0)          1.414e-21
   H2              7.071e-22   7.079e-22   -21.151   -21.150     0.001     (0)  
Na            5.000e-03
   Na+             5.000e-03   4.623e-03    -2.301    -2.335    -0.034     (0)  
   Na(Edta)-3      2.572e-14   1.183e-14   -13.590   -13.927    -0.337     (0)  
O(0)          0.000e+00
   O2              0.000e+00   0.000e+00   -49.996   -49.995     0.001     (0)  
Zn            2.000e-04
   Zn(Edta)-2      1.970e-04   1.439e-04    -3.706    -3.842    -0.136     (0)  
   ZnH(Edta)-      2.892e-06   2.673e-06    -5.539    -5.573    -0.034     (0)  
   Zn+2            1.298e-07   9.483e-08    -6.887    -7.023    -0.136     (0)  
   ZnCl+           1.191e-09   1.101e-09    -8.924    -8.958    -0.034     (0)  
   ZnOH(Edta)-3    2.903e-11   1.432e-11   -10.537   -10.844    -0.307     (0)  
   ZnOH+           1.041e-11   9.547e-12   -10.983   -11.020    -0.037     (0)  
   ZnCl2           8.067e-12   8.067e-12   -11.093   -11.093     0.000     (0)  
   ZnOHCl          1.451e-12   1.451e-12   -11.838   -11.838     0.000     (0)  
   ZnCl3-          3.205e-14   2.962e-14   -13.494   -13.528    -0.034     (0)  
   Zn(OH)2         1.523e-15   1.523e-15   -14.817   -14.817     0.000     (0)  
   ZnCl4-2         9.317e-17   6.847e-17   -16.031   -16.165    -0.134     (0)  
   Zn(OH)3-        8.380e-21   7.687e-21   -20.077   -20.114    -0.037     (0)  
   Zn(OH)4-2       4.351e-28   3.081e-28   -27.361   -27.511    -0.150     (0)  

------------------------------Saturation indices-------------------------------

  Phase               SI** log IAP   log K(298 K,   1 atm)

  Halite           -6.27     -4.67    1.60  NaCl
  O2(g)           -47.09     36.00   83.09  O2
  Zincite          -8.36      2.98   11.33  ZnO
  Zn(OH)2          -9.22      2.98   12.20  Zn(OH)2
  Zn(OH)2(am)      -9.50      2.98   12.47  Zn(OH)2
  Zn(OH)2(beta)    -8.78      2.98   11.75  Zn(OH)2
  Zn(OH)2(epsilon)  -8.56      2.98   11.53  Zn(OH)2
  Zn(OH)2(gamma)   -8.76      2.98   11.73  Zn(OH)2
  Zn2(OH)3Cl      -16.57     -1.38   15.19  Zn2(OH)3Cl
  Zn5(OH)8Cl2     -38.29      0.21   38.50  Zn5(OH)8Cl2
  ZnCl2           -18.74    -11.69    7.05  ZnCl2
  Znmetal         -40.81    -15.02   25.79  Zn
  ZnO(active)      -8.21      2.98   11.19  ZnO

**For a gas, SI = log10(fugacity). Fugacity = pressure * phi / 1 atm.
  For ideal gases, phi = 1.

------------------
End of simulation.
------------------

-------------------------------------
Reading input data for simulation 14.
-------------------------------------

	SOLUTION 12
	pH		5.2
	Cl		0.005		mol/kgw
	Na		0.005		mol/kgw
	Zn	0.200 	mmol/kgw
	EDTA  0.200 	mmol/kgw
	END
-------------------------------------------
Beginning of initial solution calculations.
-------------------------------------------

Initial solution 12.	

-----------------------------Solution composition------------------------------

	Elements           Molality       Moles

	Cl                5.000e-03   5.000e-03
	EDTA              2.000e-04   2.000e-04
	Na                5.000e-03   5.000e-03
	Zn                2.000e-04   2.000e-04

----------------------------Description of solution----------------------------

                                       pH  =   5.200    
                                       pe  =   4.000    
                        Activity of water  =   1.000
                 Ionic strength (mol/kgw)  =   5.401e-03
                       Mass of water (kg)  =   1.000e+00
                 Total alkalinity (eq/kg)  =   3.912e-04
                         Temperature (°C)  =  25.00
                  Electrical balance (eq)  =  -3.912e-04
 Percent error, 100*(Cat-|An|)/(Cat+|An|)  =  -3.76
                               Iterations  =  10
                                  Total H  = 1.110137e+02
                                  Total O  = 5.550683e+01

----------------------------Distribution of species----------------------------

                                               Log       Log       Log    mole V
   Species          Molality    Activity  Molality  Activity     Gamma   cm³/mol

   H+              6.825e-06   6.310e-06    -5.166    -5.200    -0.034      0.00
   OH-             1.728e-09   1.596e-09    -8.763    -8.797    -0.035     (0)  
   H2O             5.551e+01   9.998e-01     1.744    -0.000     0.000     18.07
Cl            5.000e-03
   Cl-             5.000e-03   4.623e-03    -2.301    -2.335    -0.034     (0)  
   ZnCl+           7.689e-10   7.107e-10    -9.114    -9.148    -0.034     (0)  
   ZnCl2           5.207e-12   5.207e-12   -11.283   -11.283     0.000     (0)  
   ZnOHCl          1.485e-12   1.485e-12   -11.828   -11.828     0.000     (0)  
   ZnCl3-          2.068e-14   1.912e-14   -13.684   -13.719    -0.034     (0)  
   ZnCl4-2         6.013e-17   4.419e-17   -16.221   -16.355    -0.134     (0)  
Edta          2.000e-04
   Zn(Edta)-2      1.981e-04   1.447e-04    -3.703    -3.840    -0.136     (0)  
   ZnH(Edta)-      1.835e-06   1.696e-06    -5.736    -5.771    -0.034     (0)  
   H2(Edta)-2      7.441e-08   5.269e-08    -7.128    -7.278    -0.150     (0)  
   H(Edta)-3       9.683e-09   4.453e-09    -8.014    -8.351    -0.337     (0)  
   H3(Edta)-       4.766e-10   4.372e-10    -9.322    -9.359    -0.037     (0)  
   ZnOH(Edta)-3    4.626e-11   2.282e-11   -10.335   -10.642    -0.307     (0)  
   H4(Edta)        3.987e-13   3.987e-13   -12.399   -12.399     0.000     (0)  
   Na(Edta)-3      4.008e-14   1.843e-14   -13.397   -13.734    -0.337     (0)  
   Edta-4          2.793e-14   7.956e-15   -13.554   -14.099    -0.545     (0)  
   H5(Edta)+       8.673e-17   7.956e-17   -16.062   -16.099    -0.037     (0)  
H(0)          5.630e-22
   H2              2.815e-22   2.818e-22   -21.551   -21.550     0.001     (0)  
Na            5.000e-03
   Na+             5.000e-03   4.623e-03    -2.301    -2.335    -0.034     (0)  
   Na(Edta)-3      4.008e-14   1.843e-14   -13.397   -13.734    -0.337     (0)  
O(0)          0.000e+00
   O2              0.000e+00   0.000e+00   -49.196   -49.195     0.001     (0)  
Zn            2.000e-04
   Zn(Edta)-2      1.981e-04   1.447e-04    -3.703    -3.840    -0.136     (0)  
   ZnH(Edta)-      1.835e-06   1.696e-06    -5.736    -5.771    -0.034     (0)  
   Zn+2            8.378e-08   6.121e-08    -7.077    -7.213    -0.136     (0)  
   ZnCl+           7.689e-10   7.107e-10    -9.114    -9.148    -0.034     (0)  
   ZnOH(Edta)-3    4.626e-11   2.282e-11   -10.335   -10.642    -0.307     (0)  
   ZnOH+           1.065e-11   9.766e-12   -10.973   -11.010    -0.037     (0)  
   ZnCl2           5.207e-12   5.207e-12   -11.283   -11.283     0.000     (0)  
   ZnOHCl          1.485e-12   1.485e-12   -11.828   -11.828     0.000     (0)  
   ZnCl3-          2.068e-14   1.912e-14   -13.684   -13.719    -0.034     (0)  
   Zn(OH)2         2.470e-15   2.470e-15   -14.607   -14.607     0.000     (0)  
   ZnCl4-2         6.013e-17   4.419e-17   -16.221   -16.355    -0.134     (0)  
   Zn(OH)3-        2.153e-20   1.975e-20   -19.667   -19.704    -0.037     (0)  
   Zn(OH)4-2       1.772e-27   1.255e-27   -26.752   -26.902    -0.150     (0)  

------------------------------Saturation indices-------------------------------

  Phase               SI** log IAP   log K(298 K,   1 atm)

  Halite           -6.27     -4.67    1.60  NaCl
  O2(g)           -46.29     36.80   83.09  O2
  Zincite          -8.15      3.19   11.33  ZnO
  Zn(OH)2          -9.01      3.19   12.20  Zn(OH)2
  Zn(OH)2(am)      -9.29      3.19   12.47  Zn(OH)2
  Zn(OH)2(beta)    -8.57      3.19   11.75  Zn(OH)2
  Zn(OH)2(epsilon)  -8.35      3.19   11.53  Zn(OH)2
  Zn(OH)2(gamma)   -8.55      3.19   11.73  Zn(OH)2
  Zn2(OH)3Cl      -16.35     -1.16   15.19  Zn2(OH)3Cl
  Zn5(OH)8Cl2     -37.64      0.86   38.50  Zn5(OH)8Cl2
  ZnCl2           -18.93    -11.88    7.05  ZnCl2
  Znmetal         -41.00    -15.21   25.79  Zn
  ZnO(active)      -8.00      3.19   11.19  ZnO

**For a gas, SI = log10(fugacity). Fugacity = pressure * phi / 1 atm.
  For ideal gases, phi = 1.

------------------
End of simulation.
------------------

-------------------------------------
Reading input data for simulation 15.
-------------------------------------

	SOLUTION 13
	pH		5.4
	Cl		0.005		mol/kgw
	Na		0.005		mol/kgw
	Zn	0.200 	mmol/kgw
	EDTA  0.200 	mmol/kgw
	END
-------------------------------------------
Beginning of initial solution calculations.
-------------------------------------------

Initial solution 13.	

-----------------------------Solution composition------------------------------

	Elements           Molality       Moles

	Cl                5.000e-03   5.000e-03
	EDTA              2.000e-04   2.000e-04
	Na                5.000e-03   5.000e-03
	Zn                2.000e-04   2.000e-04

----------------------------Description of solution----------------------------

                                       pH  =   5.400    
                                       pe  =   4.000    
                        Activity of water  =   1.000
                 Ionic strength (mol/kgw)  =   5.401e-03
                       Mass of water (kg)  =   1.000e+00
                 Total alkalinity (eq/kg)  =   3.944e-04
                         Temperature (°C)  =  25.00
                  Electrical balance (eq)  =  -3.944e-04
 Percent error, 100*(Cat-|An|)/(Cat+|An|)  =  -3.79
                               Iterations  =   9
                                  Total H  = 1.110137e+02
                                  Total O  = 5.550683e+01

----------------------------Distribution of species----------------------------

                                               Log       Log       Log    mole V
   Species          Molality    Activity  Molality  Activity     Gamma   cm³/mol

   H+              4.306e-06   3.981e-06    -5.366    -5.400    -0.034      0.00
   OH-             2.738e-09   2.529e-09    -8.563    -8.597    -0.035     (0)  
   H2O             5.551e+01   9.998e-01     1.744    -0.000     0.000     18.07
Cl            5.000e-03
   Cl-             5.000e-03   4.623e-03    -2.301    -2.335    -0.034     (0)  
   ZnCl+           5.015e-10   4.635e-10    -9.300    -9.334    -0.034     (0)  
   ZnCl2           3.396e-12   3.396e-12   -11.469   -11.469     0.000     (0)  
   ZnOHCl          1.535e-12   1.535e-12   -11.814   -11.814     0.000     (0)  
   ZnCl3-          1.349e-14   1.247e-14   -13.870   -13.904    -0.034     (0)  
   ZnCl4-2         3.922e-17   2.882e-17   -16.407   -16.540    -0.134     (0)  
Edta          2.000e-04
   Zn(Edta)-2      1.988e-04   1.452e-04    -3.702    -3.838    -0.136     (0)  
   ZnH(Edta)-      1.162e-06   1.074e-06    -5.935    -5.969    -0.034     (0)  
   H2(Edta)-2      4.558e-08   3.227e-08    -7.341    -7.491    -0.150     (0)  
   H(Edta)-3       9.401e-09   4.323e-09    -8.027    -8.364    -0.337     (0)  
   H3(Edta)-       1.842e-10   1.690e-10    -9.735    -9.772    -0.037     (0)  
   ZnOH(Edta)-3    7.358e-11   3.630e-11   -10.133   -10.440    -0.307     (0)  
   H4(Edta)        9.724e-14   9.724e-14   -13.012   -13.012     0.000     (0)  
   Na(Edta)-3      6.166e-14   2.836e-14   -13.210   -13.547    -0.337     (0)  
   Edta-4          4.298e-14   1.224e-14   -13.367   -13.912    -0.545     (0)  
   H5(Edta)+       1.334e-17   1.224e-17   -16.875   -16.912    -0.037     (0)  
H(0)          2.241e-22
   H2              1.121e-22   1.122e-22   -21.951   -21.950     0.001     (0)  
Na            5.000e-03
   Na+             5.000e-03   4.623e-03    -2.301    -2.335    -0.034     (0)  
   Na(Edta)-3      6.166e-14   2.836e-14   -13.210   -13.547    -0.337     (0)  
O(0)          0.000e+00
   O2              0.000e+00   0.000e+00   -48.396   -48.395     0.001     (0)  
Zn            2.000e-04
   Zn(Edta)-2      1.988e-04   1.452e-04    -3.702    -3.838    -0.136     (0)  
   ZnH(Edta)-      1.162e-06   1.074e-06    -5.935    -5.969    -0.034     (0)  
   Zn+2            5.465e-08   3.992e-08    -7.262    -7.399    -0.136     (0)  
   ZnCl+           5.015e-10   4.635e-10    -9.300    -9.334    -0.034     (0)  
   ZnOH(Edta)-3    7.358e-11   3.630e-11   -10.133   -10.440    -0.307     (0)  
   ZnOH+           1.101e-11   1.010e-11   -10.958   -10.996    -0.037     (0)  
   ZnCl2           3.396e-12   3.396e-12   -11.469   -11.469     0.000     (0)  
   ZnOHCl          1.535e-12   1.535e-12   -11.814   -11.814     0.000     (0)  
   ZnCl3-          1.349e-14   1.247e-14   -13.870   -13.904    -0.034     (0)  
   Zn(OH)2         4.046e-15   4.046e-15   -14.393   -14.393     0.000     (0)  
   ZnCl4-2         3.922e-17   2.882e-17   -16.407   -16.540    -0.134     (0)  
   Zn(OH)3-        5.591e-20   5.128e-20   -19.253   -19.290    -0.037     (0)  
   Zn(OH)4-2       7.292e-27   5.163e-27   -26.137   -26.287    -0.150     (0)  

------------------------------Saturation indices-------------------------------

  Phase               SI** log IAP   log K(298 K,   1 atm)

  Halite           -6.27     -4.67    1.60  NaCl
  O2(g)           -45.49     37.60   83.09  O2
  Zincite          -7.93      3.40   11.33  ZnO
  Zn(OH)2          -8.80      3.40   12.20  Zn(OH)2
  Zn(OH)2(am)      -9.07      3.40   12.47  Zn(OH)2
  Zn(OH)2(beta)    -8.35      3.40   11.75  Zn(OH)2
  Zn(OH)2(epsilon)  -8.13      3.40   11.53  Zn(OH)2
  Zn(OH)2(gamma)   -8.33      3.40   11.73  Zn(OH)2
  Zn2(OH)3Cl      -16.12     -0.93   15.19  Zn2(OH)3Cl
  Zn5(OH)8Cl2     -36.96      1.54   38.50  Zn5(OH)8Cl2
  ZnCl2           -19.12    -12.07    7.05  ZnCl2
  Znmetal         -41.19    -15.40   25.79  Zn
  ZnO(active)      -7.79      3.40   11.19  ZnO

**For a gas, SI = log10(fugacity). Fugacity = pressure * phi / 1 atm.
  For ideal gases, phi = 1.

------------------
End of simulation.
------------------

-------------------------------------
Reading input data for simulation 16.
-------------------------------------

	SOLUTION 14
	pH		5.6
	Cl		0.005		mol/kgw
	Na		0.005		mol/kgw
	Zn	0.200 	mmol/kgw
	EDTA  0.200 	mmol/kgw
	END
-------------------------------------------
Beginning of initial solution calculations.
-------------------------------------------

Initial solution 14.	

-----------------------------Solution composition------------------------------

	Elements           Molality       Moles

	Cl                5.000e-03   5.000e-03
	EDTA              2.000e-04   2.000e-04
	Na                5.000e-03   5.000e-03
	Zn                2.000e-04   2.000e-04

----------------------------Description of solution----------------------------

                                       pH  =   5.600    
                                       pe  =   4.000    
                        Activity of water  =   1.000
                 Ionic strength (mol/kgw)  =   5.400e-03
                       Mass of water (kg)  =   1.000e+00
                 Total alkalinity (eq/kg)  =   3.965e-04
                         Temperature (°C)  =  25.00
                  Electrical balance (eq)  =  -3.965e-04
 Percent error, 100*(Cat-|An|)/(Cat+|An|)  =  -3.81
                               Iterations  =   9
                                  Total H  = 1.110137e+02
                                  Total O  = 5.550683e+01

----------------------------Distribution of species----------------------------

                                               Log       Log       Log    mole V
   Species          Molality    Activity  Molality  Activity     Gamma   cm³/mol

   H+              2.717e-06   2.512e-06    -5.566    -5.600    -0.034      0.00
   OH-             4.340e-09   4.008e-09    -8.363    -8.397    -0.035     (0)  
   H2O             5.551e+01   9.998e-01     1.744    -0.000     0.000     18.07
Cl            5.000e-03
   Cl-             5.000e-03   4.623e-03    -2.301    -2.335    -0.034     (0)  
   ZnCl+           3.320e-10   3.068e-10    -9.479    -9.513    -0.034     (0)  
   ZnCl2           2.248e-12   2.248e-12   -11.648   -11.648     0.000     (0)  
   ZnOHCl          1.610e-12   1.610e-12   -11.793   -11.793     0.000     (0)  
   ZnCl3-          8.930e-15   8.254e-15   -14.049   -14.083    -0.034     (0)  
   ZnCl4-2         2.596e-17   1.908e-17   -16.586   -16.719    -0.134     (0)  
Edta          2.000e-04
   Zn(Edta)-2      1.992e-04   1.455e-04    -3.701    -3.837    -0.136     (0)  
   ZnH(Edta)-      7.347e-07   6.792e-07    -6.134    -6.168    -0.034     (0)  
   H2(Edta)-2      2.747e-08   1.945e-08    -7.561    -7.711    -0.150     (0)  
   H(Edta)-3       8.980e-09   4.130e-09    -8.047    -8.384    -0.337     (0)  
   ZnOH(Edta)-3    1.169e-10   5.767e-11    -9.932   -10.239    -0.307     (0)  
   H3(Edta)-       7.005e-11   6.426e-11   -10.155   -10.192    -0.037     (0)  
   Na(Edta)-3      9.336e-14   4.294e-14   -13.030   -13.367    -0.337     (0)  
   Edta-4          6.507e-14   1.853e-14   -13.187   -13.732    -0.545     (0)  
   H4(Edta)        2.333e-14   2.333e-14   -13.632   -13.632     0.000     (0)  
   H5(Edta)+       2.020e-18   1.853e-18   -17.695   -17.732    -0.037     (0)  
H(0)          8.923e-23
   H2              4.461e-23   4.467e-23   -22.351   -22.350     0.001     (0)  
Na            5.000e-03
   Na+             5.000e-03   4.623e-03    -2.301    -2.335    -0.034     (0)  
   Na(Edta)-3      9.336e-14   4.294e-14   -13.030   -13.367    -0.337     (0)  
O(0)          0.000e+00
   O2              0.000e+00   0.000e+00   -47.596   -47.595     0.001     (0)  
Zn            2.000e-04
   Zn(Edta)-2      1.992e-04   1.455e-04    -3.701    -3.837    -0.136     (0)  
   ZnH(Edta)-      7.347e-07   6.792e-07    -6.134    -6.168    -0.034     (0)  
   Zn+2            3.617e-08   2.643e-08    -7.442    -7.578    -0.136     (0)  
   ZnCl+           3.320e-10   3.068e-10    -9.479    -9.513    -0.034     (0)  
   ZnOH(Edta)-3    1.169e-10   5.767e-11    -9.932   -10.239    -0.307     (0)  
   ZnOH+           1.155e-11   1.059e-11   -10.938   -10.975    -0.037     (0)  
   ZnCl2           2.248e-12   2.248e-12   -11.648   -11.648     0.000     (0)  
   ZnOHCl          1.610e-12   1.610e-12   -11.793   -11.793     0.000     (0)  
   ZnCl3-          8.930e-15   8.254e-15   -14.049   -14.083    -0.034     (0)  
   Zn(OH)2         6.728e-15   6.728e-15   -14.172   -14.172     0.000     (0)  
   ZnCl4-2         2.596e-17   1.908e-17   -16.586   -16.719    -0.134     (0)  
   Zn(OH)3-        1.473e-19   1.352e-19   -18.832   -18.869    -0.037     (0)  
   Zn(OH)4-2       3.046e-26   2.156e-26   -25.516   -25.666    -0.150     (0)  

------------------------------Saturation indices-------------------------------

  Phase               SI** log IAP   log K(298 K,   1 atm)

  Halite           -6.27     -4.67    1.60  NaCl
  O2(g)           -44.69     38.40   83.09  O2
[...]
   H3(Edta)-       1.444e-19   1.324e-19   -18.841   -18.878    -0.038     (0)  
   H4(Edta)        7.620e-27   7.620e-27   -26.118   -26.118     0.000     (0)  
   H5(Edta)+       1.046e-34   9.592e-35   -33.981   -34.018    -0.038     (0)  
H(0)          2.241e-30
   H2              1.121e-30   1.122e-30   -29.951   -29.950     0.001     (0)  
Na            5.000e-03
   Na+             5.000e-03   4.622e-03    -2.301    -2.335    -0.034     (0)  
   Na(Edta)-3      4.837e-11   2.222e-11   -10.315   -10.653    -0.338     (0)  
O(0)          8.040e-33
   O2              4.020e-33   4.025e-33   -32.396   -32.395     0.001     (0)  
Zn            2.000e-04
   Zn(Edta)-2      1.993e-04   1.455e-04    -3.701    -3.837    -0.137     (0)  
   ZnOH(Edta)-3    7.379e-07   3.638e-07    -6.132    -6.439    -0.307     (0)  
   Zn(OH)2         5.174e-10   5.174e-10    -9.286    -9.286     0.000     (0)  
   ZnOH+           1.407e-10   1.291e-10    -9.852    -9.889    -0.038     (0)  
   ZnH(Edta)-      1.164e-10   1.076e-10    -9.934    -9.968    -0.034     (0)  
   Zn(OH)3-        7.149e-11   6.558e-11   -10.146   -10.183    -0.038     (0)  
   Zn+2            6.990e-11   5.105e-11   -10.156   -10.292    -0.137     (0)  
   ZnOHCl          1.962e-11   1.962e-11   -10.707   -10.707     0.000     (0)  
   ZnCl+           6.413e-13   5.927e-13   -12.193   -12.227    -0.034     (0)  
   Zn(OH)4-2       9.328e-14   6.602e-14   -13.030   -13.180    -0.150     (0)  
   ZnCl2           4.342e-15   4.342e-15   -14.362   -14.362     0.000     (0)  
   ZnCl3-          1.725e-17   1.594e-17   -16.763   -16.798    -0.034     (0)  
   ZnCl4-2         5.015e-20   3.684e-20   -19.300   -19.434    -0.134     (0)  

------------------------------Saturation indices-------------------------------

  Phase               SI** log IAP   log K(298 K,   1 atm)

  Halite           -6.27     -4.67    1.60  NaCl
  O2(g)           -29.49     53.60   83.09  O2
  Zincite          -2.83      8.51   11.33  ZnO
  Zn(OH)2          -3.69      8.51   12.20  Zn(OH)2
  Zn(OH)2(am)      -3.97      8.51   12.47  Zn(OH)2
  Zn(OH)2(beta)    -3.25      8.51   11.75  Zn(OH)2
  Zn(OH)2(epsilon)  -3.03      8.51   11.53  Zn(OH)2
  Zn(OH)2(gamma)   -3.23      8.51   11.73  Zn(OH)2
  Zn2(OH)3Cl       -9.91      5.28   15.19  Zn2(OH)3Cl
  Zn5(OH)8Cl2     -19.43     19.07   38.50  Zn5(OH)8Cl2
  ZnCl2           -22.01    -14.96    7.05  ZnCl2
  Znmetal         -44.08    -18.29   25.79  Zn
  ZnO(active)      -2.68      8.51   11.19  ZnO

**For a gas, SI = log10(fugacity). Fugacity = pressure * phi / 1 atm.
  For ideal gases, phi = 1.

------------------
End of simulation.
------------------

-------------------------------------
Reading input data for simulation 36.
-------------------------------------

	SOLUTION 34
	pH		9.6
	Cl		0.005		mol/kgw
	Na		0.005		mol/kgw
	Zn	0.200 	mmol/kgw
	EDTA  0.200 	mmol/kgw
	END
-------------------------------------------
Beginning of initial solution calculations.
-------------------------------------------

Initial solution 34.	

-----------------------------Solution composition------------------------------

	Elements           Molality       Moles

	Cl                5.000e-03   5.000e-03
	EDTA              2.000e-04   2.000e-04
	Na                5.000e-03   5.000e-03
	Zn                2.000e-04   2.000e-04

----------------------------Description of solution----------------------------

                                       pH  =   9.600    
                                       pe  =   4.000    
                        Activity of water  =   1.000
                 Ionic strength (mol/kgw)  =   5.425e-03
                       Mass of water (kg)  =   1.000e+00
                 Total alkalinity (eq/kg)  =   4.446e-04
                         Temperature (°C)  =  25.00
                  Electrical balance (eq)  =  -4.446e-04
 Percent error, 100*(Cat-|An|)/(Cat+|An|)  =  -4.26
                               Iterations  =   5
                                  Total H  = 1.110137e+02
                                  Total O  = 5.550688e+01

----------------------------Distribution of species----------------------------

                                               Log       Log       Log    mole V
   Species          Molality    Activity  Molality  Activity     Gamma   cm³/mol

   OH-             4.341e-05   4.008e-05    -4.362    -4.397    -0.035     (0)  
   H+              2.717e-10   2.512e-10    -9.566    -9.600    -0.034      0.00
   H2O             5.551e+01   9.998e-01     1.744    -0.000     0.000     18.07
Cl            5.000e-03
   Cl-             5.000e-03   4.622e-03    -2.301    -2.335    -0.034     (0)  
   ZnOHCl          1.664e-11   1.664e-11   -10.779   -10.779     0.000     (0)  
   ZnCl+           3.431e-13   3.171e-13   -12.465   -12.499    -0.034     (0)  
   ZnCl2           2.322e-15   2.322e-15   -14.634   -14.634     0.000     (0)  
   ZnCl3-          9.226e-18   8.526e-18   -17.035   -17.069    -0.034     (0)  
   ZnCl4-2         2.683e-20   1.971e-20   -19.571   -19.705    -0.134     (0)  
Edta          2.000e-04
   Zn(Edta)-2      1.988e-04   1.452e-04    -3.702    -3.838    -0.137     (0)  
   ZnOH(Edta)-3    1.167e-06   5.751e-07    -5.933    -6.240    -0.307     (0)  
   H(Edta)-3       8.682e-10   3.986e-10    -9.061    -9.399    -0.338     (0)  
   Na(Edta)-3      9.024e-11   4.143e-11   -10.045   -10.383    -0.338     (0)  
   ZnH(Edta)-      7.328e-11   6.774e-11   -10.135   -10.169    -0.034     (0)  
   Edta-4          6.296e-11   1.789e-11   -10.201   -10.747    -0.547     (0)  
   H2(Edta)-2      2.653e-13   1.877e-13   -12.576   -12.726    -0.150     (0)  
   H3(Edta)-       6.762e-20   6.202e-20   -19.170   -19.207    -0.038     (0)  
   H4(Edta)        2.252e-27   2.252e-27   -26.647   -26.647     0.000     (0)  
   H5(Edta)+       1.950e-35   1.789e-35   -34.710   -34.747    -0.038     (0)  
H(0)          8.923e-31
   H2              4.461e-31   4.467e-31   -30.351   -30.350     0.001     (0)  
Na            5.000e-03
   Na+             5.000e-03   4.622e-03    -2.301    -2.335    -0.034     (0)  
   Na(Edta)-3      9.024e-11   4.143e-11   -10.045   -10.383    -0.338     (0)  
O(0)          5.073e-32
   O2              2.536e-32   2.540e-32   -31.596   -31.595     0.001     (0)  
Zn            2.000e-04
   Zn(Edta)-2      1.988e-04   1.452e-04    -3.702    -3.838    -0.137     (0)  
   ZnOH(Edta)-3    1.167e-06   5.751e-07    -5.933    -6.240    -0.307     (0)  
   Zn(OH)2         6.953e-10   6.953e-10    -9.158    -9.158     0.000     (0)  
   Zn(OH)3-        1.523e-10   1.397e-10    -9.817    -9.855    -0.038     (0)  
   ZnOH+           1.193e-10   1.095e-10    -9.923    -9.961    -0.038     (0)  
   ZnH(Edta)-      7.328e-11   6.774e-11   -10.135   -10.169    -0.034     (0)  
   Zn+2            3.741e-11   2.731e-11   -10.427   -10.564    -0.137     (0)  
   ZnOHCl          1.664e-11   1.664e-11   -10.779   -10.779     0.000     (0)  
   ZnCl+           3.431e-13   3.171e-13   -12.465   -12.499    -0.034     (0)  
   Zn(OH)4-2       3.150e-13   2.229e-13   -12.502   -12.652    -0.150     (0)  
   ZnCl2           2.322e-15   2.322e-15   -14.634   -14.634     0.000     (0)  
   ZnCl3-          9.226e-18   8.526e-18   -17.035   -17.069    -0.034     (0)  
   ZnCl4-2         2.683e-20   1.971e-20   -19.571   -19.705    -0.134     (0)  

------------------------------Saturation indices-------------------------------

  Phase               SI** log IAP   log K(298 K,   1 atm)

  Halite           -6.27     -4.67    1.60  NaCl
  O2(g)           -28.69     54.40   83.09  O2
  Zincite          -2.70      8.64   11.33  ZnO
  Zn(OH)2          -3.56      8.64   12.20  Zn(OH)2
  Zn(OH)2(am)      -3.84      8.64   12.47  Zn(OH)2
  Zn(OH)2(beta)    -3.12      8.64   11.75  Zn(OH)2
  Zn(OH)2(epsilon)  -2.90      8.64   11.53  Zn(OH)2
  Zn(OH)2(gamma)   -3.10      8.64   11.73  Zn(OH)2
  Zn2(OH)3Cl       -9.85      5.34   15.19  Zn2(OH)3Cl
  Zn5(OH)8Cl2     -19.19     19.31   38.50  Zn5(OH)8Cl2
  ZnCl2           -22.28    -15.23    7.05  ZnCl2
  Znmetal         -44.35    -18.56   25.79  Zn
  ZnO(active)      -2.55      8.64   11.19  ZnO

**For a gas, SI = log10(fugacity). Fugacity = pressure * phi / 1 atm.
  For ideal gases, phi = 1.

------------------
End of simulation.
------------------

-------------------------------------
Reading input data for simulation 37.
-------------------------------------

	SOLUTION 35
	pH		9.8
	Cl		0.005		mol/kgw
	Na		0.005		mol/kgw
	Zn	0.200 	mmol/kgw
	EDTA  0.200 	mmol/kgw
	END
-------------------------------------------
Beginning of initial solution calculations.
-------------------------------------------

Initial solution 35.	

-----------------------------Solution composition------------------------------

	Elements           Molality       Moles

	Cl                5.000e-03   5.000e-03
	EDTA              2.000e-04   2.000e-04
	Na                5.000e-03   5.000e-03
	Zn                2.000e-04   2.000e-04

----------------------------Description of solution----------------------------

                                       pH  =   9.800    
                                       pe  =   4.000    
                        Activity of water  =   1.000
                 Ionic strength (mol/kgw)  =   5.439e-03
                       Mass of water (kg)  =   1.000e+00
                 Total alkalinity (eq/kg)  =   4.706e-04
                         Temperature (°C)  =  25.00
                  Electrical balance (eq)  =  -4.706e-04
 Percent error, 100*(Cat-|An|)/(Cat+|An|)  =  -4.49
                               Iterations  =   5
                                  Total H  = 1.110137e+02
                                  Total O  = 5.550690e+01

----------------------------Distribution of species----------------------------

                                               Log       Log       Log    mole V
   Species          Molality    Activity  Molality  Activity     Gamma   cm³/mol

   OH-             6.880e-05   6.352e-05    -4.162    -4.197    -0.035     (0)  
   H+              1.715e-10   1.585e-10    -9.766    -9.800    -0.034      0.00
   H2O             5.551e+01   9.998e-01     1.744    -0.000     0.000     18.07
Cl            5.000e-03
   Cl-             5.000e-03   4.621e-03    -2.301    -2.335    -0.034     (0)  
   ZnOHCl          1.365e-11   1.365e-11   -10.865   -10.865     0.000     (0)  
   ZnCl+           1.776e-13   1.641e-13   -12.750   -12.785    -0.034     (0)  
   ZnCl2           1.202e-15   1.202e-15   -14.920   -14.920     0.000     (0)  
   ZnCl3-          4.776e-18   4.413e-18   -17.321   -17.355    -0.034     (0)  
   ZnCl4-2         1.389e-20   1.020e-20   -19.857   -19.991    -0.134     (0)  
Edta          2.000e-04
   Zn(Edta)-2      1.982e-04   1.446e-04    -3.703    -3.840    -0.137     (0)  
   ZnOH(Edta)-3    1.845e-06   9.081e-07    -5.734    -6.042    -0.308     (0)  
   H(Edta)-3       1.055e-09   4.839e-10    -8.977    -9.315    -0.339     (0)  
   Na(Edta)-3      1.738e-10   7.971e-11    -9.760   -10.098    -0.339     (0)  
   Edta-4          1.213e-10   3.442e-11    -9.916   -10.463    -0.547     (0)  
   ZnH(Edta)-      4.607e-11   4.258e-11   -10.337   -10.371    -0.034     (0)  
   H2(Edta)-2      2.033e-13   1.438e-13   -12.692   -12.842    -0.150     (0)  
   H3(Edta)-       3.269e-20   2.997e-20   -19.486   -19.523    -0.038     (0)  
   H4(Edta)        6.867e-28   6.867e-28   -27.163   -27.163     0.000     (0)  
   H5(Edta)+       3.753e-36   3.442e-36   -35.426   -35.463    -0.038     (0)  
H(0)          3.552e-31
   H2              1.776e-31   1.778e-31   -30.751   -30.750     0.001     (0)  
Na            5.000e-03
   Na+             5.000e-03   4.621e-03    -2.301    -2.335    -0.034     (0)  
   Na(Edta)-3      1.738e-10   7.971e-11    -9.760   -10.098    -0.339     (0)  
O(0)          3.201e-31
   O2              1.600e-31   1.602e-31   -30.796   -30.795     0.001     (0)  
Zn            2.000e-04
   Zn(Edta)-2      1.982e-04   1.446e-04    -3.703    -3.840    -0.137     (0)  
   ZnOH(Edta)-3    1.845e-06   9.081e-07    -5.734    -6.042    -0.308     (0)  
   Zn(OH)2         9.043e-10   9.043e-10    -9.044    -9.044     0.000     (0)  
   Zn(OH)3-        3.139e-10   2.879e-10    -9.503    -9.541    -0.038     (0)  
   ZnOH+           9.795e-11   8.982e-11   -10.009   -10.047    -0.038     (0)  
   ZnH(Edta)-      4.607e-11   4.258e-11   -10.337   -10.371    -0.034     (0)  
   Zn+2            1.938e-11   1.414e-11   -10.713   -10.850    -0.137     (0)  
   ZnOHCl          1.365e-11   1.365e-11   -10.865   -10.865     0.000     (0)  
   Zn(OH)4-2       1.029e-12   7.280e-13   -11.987   -12.138    -0.150     (0)  
   ZnCl+           1.776e-13   1.641e-13   -12.750   -12.785    -0.034     (0)  
   ZnCl2           1.202e-15   1.202e-15   -14.920   -14.920     0.000     (0)  
   ZnCl3-          4.776e-18   4.413e-18   -17.321   -17.355    -0.034     (0)  
   ZnCl4-2         1.389e-20   1.020e-20   -19.857   -19.991    -0.134     (0)  

------------------------------Saturation indices-------------------------------

  Phase               SI** log IAP   log K(298 K,   1 atm)

  Halite           -6.27     -4.67    1.60  NaCl
  O2(g)           -27.89     55.20   83.09  O2
  Zincite          -2.58      8.75   11.33  ZnO
  Zn(OH)2          -3.45      8.75   12.20  Zn(OH)2
  Zn(OH)2(am)      -3.72      8.75   12.47  Zn(OH)2
  Zn(OH)2(beta)    -3.00      8.75   11.75  Zn(OH)2
  Zn(OH)2(epsilon)  -2.78      8.75   11.53  Zn(OH)2
  Zn(OH)2(gamma)   -2.98      8.75   11.73  Zn(OH)2
  Zn2(OH)3Cl       -9.83      5.37   15.19  Zn2(OH)3Cl
  Zn5(OH)8Cl2     -19.02     19.48   38.50  Zn5(OH)8Cl2
  ZnCl2           -22.57    -15.52    7.05  ZnCl2
  Znmetal         -44.64    -18.85   25.79  Zn
  ZnO(active)      -2.44      8.75   11.19  ZnO

**For a gas, SI = log10(fugacity). Fugacity = pressure * phi / 1 atm.
  For ideal gases, phi = 1.

------------------
End of simulation.
------------------

-------------------------------------
Reading input data for simulation 38.
-------------------------------------

	SOLUTION 36
	pH		10.0
	Cl		0.005		mol/kgw
	Na		0.005		mol/kgw
	Zn	0.200 	mmol/kgw
	EDTA  0.200 	mmol/kgw
	END
-------------------------------------------
Beginning of initial solution calculations.
-------------------------------------------

Initial solution 36.	

-----------------------------Solution composition------------------------------

	Elements           Molality       Moles

	Cl                5.000e-03   5.000e-03
	EDTA              2.000e-04   2.000e-04
	Na                5.000e-03   5.000e-03
	Zn                2.000e-04   2.000e-04

----------------------------Description of solution----------------------------

                                       pH  =  10.000    
                                       pe  =   4.000    
                        Activity of water  =   1.000
                 Ionic strength (mol/kgw)  =   5.462e-03
                       Mass of water (kg)  =   1.000e+00
                 Total alkalinity (eq/kg)  =   5.120e-04
                         Temperature (°C)  =  25.00
                  Electrical balance (eq)  =  -5.120e-04
 Percent error, 100*(Cat-|An|)/(Cat+|An|)  =  -4.87
                               Iterations  =   5
                                  Total H  = 1.110138e+02
                                  Total O  = 5.550694e+01

----------------------------Distribution of species----------------------------

                                               Log       Log       Log    mole V
   Species          Molality    Activity  Molality  Activity     Gamma   cm³/mol

   OH-             1.091e-04   1.007e-04    -3.962    -3.997    -0.035     (0)  
   H+              1.082e-10   1.000e-10    -9.966   -10.000    -0.034      0.00
   H2O             5.551e+01   9.998e-01     1.744    -0.000     0.000     18.07
Cl            5.000e-03
   Cl-             5.000e-03   4.621e-03    -2.301    -2.335    -0.034     (0)  
   ZnOHCl          1.096e-11   1.096e-11   -10.960   -10.960     0.000     (0)  
   ZnCl+           9.003e-14   8.318e-14   -13.046   -13.080    -0.034     (0)  
   ZnCl2           6.092e-16   6.092e-16   -15.215   -15.215     0.000     (0)  
   ZnCl3-          2.420e-18   2.236e-18   -17.616   -17.651    -0.034     (0)  
   ZnCl4-2         7.041e-21   5.166e-21   -20.152   -20.287    -0.134     (0)  
Edta          2.000e-04
   Zn(Edta)-2      1.971e-04   1.437e-04    -3.705    -3.842    -0.137     (0)  
   ZnOH(Edta)-3    2.910e-06   1.431e-06    -5.536    -5.844    -0.308     (0)  
   H(Edta)-3       1.308e-09   5.988e-10    -8.883    -9.223    -0.339     (0)  
   Na(Edta)-3      3.414e-10   1.563e-10    -9.467    -9.806    -0.339     (0)  
   Edta-4          2.385e-10   6.750e-11    -9.623   -10.171    -0.548     (0)  
   ZnH(Edta)-      2.890e-11   2.671e-11   -10.539   -10.573    -0.034     (0)  
   H2(Edta)-2      1.589e-13   1.123e-13   -12.799   -12.950    -0.151     (0)  
   H3(Edta)-       1.611e-20   1.477e-20   -19.793   -19.831    -0.038     (0)  
   H4(Edta)        2.134e-28   2.134e-28   -27.671   -27.671     0.000     (0)  
   H5(Edta)+       7.362e-37   6.750e-37   -36.133   -36.171    -0.038     (0)  
H(0)          1.414e-31
   H2              7.071e-32   7.079e-32   -31.151   -31.150     0.001     (0)  
Na            5.000e-03
   Na+             5.000e-03   4.621e-03    -2.301    -2.335    -0.034     (0)  
   Na(Edta)-3      3.414e-10   1.563e-10    -9.467    -9.806    -0.339     (0)  
O(0)          2.020e-30
   O2              1.010e-30   1.011e-30   -29.996   -29.995     0.001     (0)  
Zn            2.000e-04
   Zn(Edta)-2      1.971e-04   1.437e-04    -3.705    -3.842    -0.137     (0)  
   ZnOH(Edta)-3    2.910e-06   1.431e-06    -5.536    -5.844    -0.308     (0)  
   Zn(OH)2         1.151e-09   1.151e-09    -8.939    -8.939     0.000     (0)  
   Zn(OH)3-        6.336e-10   5.809e-10    -9.198    -9.236    -0.038     (0)  
   ZnOH+           7.870e-11   7.215e-11   -10.104   -10.142    -0.038     (0)  
   ZnH(Edta)-      2.890e-11   2.671e-11   -10.539   -10.573    -0.034     (0)  
   ZnOHCl          1.096e-11   1.096e-11   -10.960   -10.960     0.000     (0)  
   Zn+2            9.826e-12   7.167e-12   -11.008   -11.145    -0.137     (0)  
   Zn(OH)4-2       3.295e-12   2.328e-12   -11.482   -11.633    -0.151     (0)  
   ZnCl+           9.003e-14   8.318e-14   -13.046   -13.080    -0.034     (0)  
   ZnCl2           6.092e-16   6.092e-16   -15.215   -15.215     0.000     (0)  
   ZnCl3-          2.420e-18   2.236e-18   -17.616   -17.651    -0.034     (0)  
   ZnCl4-2         7.041e-21   5.166e-21   -20.152   -20.287    -0.134     (0)  

------------------------------Saturation indices-------------------------------

  Phase               SI** log IAP   log K(298 K,   1 atm)

  Halite           -6.27     -4.67    1.60  NaCl
  O2(g)           -27.09     56.00   83.09  O2
  Zincite          -2.48      8.86   11.33  ZnO
  Zn(OH)2          -3.34      8.86   12.20  Zn(OH)2
  Zn(OH)2(am)      -3.62      8.86   12.47  Zn(OH)2
  Zn(OH)2(beta)    -2.90      8.86   11.75  Zn(OH)2
  Zn(OH)2(epsilon)  -2.68      8.86   11.53  Zn(OH)2
  Zn(OH)2(gamma)   -2.88      8.86   11.73  Zn(OH)2
  Zn2(OH)3Cl       -9.82      5.38   15.19  Zn2(OH)3Cl
  Zn5(OH)8Cl2     -18.89     19.61   38.50  Zn5(OH)8Cl2
  ZnCl2           -22.87    -15.82    7.05  ZnCl2
  Znmetal         -44.93    -19.14   25.79  Zn
  ZnO(active)      -2.33      8.86   11.19  ZnO

**For a gas, SI = log10(fugacity). Fugacity = pressure * phi / 1 atm.
  For ideal gases, phi = 1.

------------------
End of simulation.
------------------

-------------------------------------
Reading input data for simulation 39.
-------------------------------------

----------------------------------
End of Run after 0.061361 Seconds.
----------------------------------

