   Input file: /Users/wangjincheng/Desktop/git/irp-jw21/Project_jw21/pqi/0.01ZnNta.pqi
  Output file: /Users/wangjincheng/Desktop/git/irp-jw21/Project_jw21/pqo/0.01ZnNta.pqi.pqi.out
Database file: /Users/wangjincheng/Desktop/git/irp-jw21/Project_jw21/phreeqc/database/minteq.v4.dat

------------------
Reading data base.
------------------

	SOLUTION_MASTER_SPECIES
	SOLUTION_SPECIES
	SOLUTION_SPECIES
	PHASES
	PHASES
	SURFACE_MASTER_SPECIES
	SURFACE_SPECIES
	END
------------------------------------
Reading input data for simulation 1.
------------------------------------

	DATABASE /Users/wangjincheng/Desktop/git/irp-jw21/Project_jw21/phreeqc/database/minteq.v4.dat
	TITLE 04_SURFACE_COMPLEXATION
	SOLUTION_MASTER_SPECIES
	Zn		Zn+2		0.0	Zn	65.39
	Nta		Nta-3		1.0	188.117	188.117
	END
-----
TITLE
-----

 04_SURFACE_COMPLEXATION

------------------
End of simulation.
------------------

------------------------------------
Reading input data for simulation 2.
------------------------------------

	SOLUTION_SPECIES
	Zn+2 + Nta-3 = Zn(Nta)-
	log_k		11.412
	Zn+2 + 2Nta-3 = Zn(Nta)2-4
	log_k		14.611
	Zn+2 + Nta-3 + H2O = ZnOH(Nta)-2 + H+
	log_k		1.101
	END
------------------
End of simulation.
------------------

------------------------------------
Reading input data for simulation 3.
------------------------------------

	SOLUTION 1
	pH		3.0
	Cl		0.01		mol/kgw
	Na		0.01		mol/kgw
	Zn	0.200 	mmol/kgw
	Nta  0.200 	mmol/kgw
	END
-------------------------------------------
Beginning of initial solution calculations.
-------------------------------------------

Initial solution 1.	

-----------------------------Solution composition------------------------------

	Elements           Molality       Moles

	Cl                1.000e-02   1.000e-02
	Na                1.000e-02   1.000e-02
	Nta               2.000e-04   2.000e-04
	Zn                2.000e-04   2.000e-04

----------------------------Description of solution----------------------------

                                       pH  =   3.000    
                                       pe  =   4.000    
                        Activity of water  =   1.000
                 Ionic strength (mol/kgw)  =   1.104e-02
                       Mass of water (kg)  =   1.000e+00
                 Total alkalinity (eq/kg)  =  -1.107e-03
                         Temperature (°C)  =  25.00
                  Electrical balance (eq)  =   1.107e-03
 Percent error, 100*(Cat-|An|)/(Cat+|An|)  =   5.11
                               Iterations  =   9
                                  Total H  = 1.110150e+02
                                  Total O  = 5.550683e+01

----------------------------Distribution of species----------------------------

                                               Log       Log       Log    mole V
   Species          Molality    Activity  Molality  Activity     Gamma   cm³/mol

   H+              1.114e-03   1.000e-03    -2.953    -3.000    -0.047      0.00
   OH-             1.124e-11   1.007e-11   -10.949   -10.997    -0.048     (0)  
   H2O             5.551e+01   9.996e-01     1.744    -0.000     0.000     18.07
Cl            1.000e-02
   Cl-             9.998e-03   8.976e-03    -2.000    -2.047    -0.047     (0)  
   ZnCl+           2.168e-06   1.945e-06    -5.664    -5.711    -0.047     (0)  
   ZnCl2           2.768e-08   2.768e-08    -7.558    -7.558     0.000     (0)  
   ZnCl3-          2.199e-10   1.973e-10    -9.658    -9.705    -0.047     (0)  
   ZnOHCl          2.564e-11   2.564e-11   -10.591   -10.591     0.000     (0)  
   ZnCl4-2         1.349e-12   8.857e-13   -11.870   -12.053    -0.183     (0)  
H(0)          1.412e-17
   H2              7.061e-18   7.079e-18   -17.151   -17.150     0.001     (0)  
Na            1.000e-02
   Na+             1.000e-02   8.978e-03    -2.000    -2.047    -0.047     (0)  
Nta           2.000e-04
   H(Nta)-2        8.140e-05   4.969e-05    -4.089    -4.304    -0.214     (0)  
   Zn(Nta)-        6.501e-05   5.837e-05    -4.187    -4.234    -0.047     (0)  
   H2(Nta)-        4.919e-05   4.348e-05    -4.308    -4.362    -0.054     (0)  
   H3(Nta)         4.348e-06   4.348e-06    -5.362    -5.362     0.000     (0)  
   H4(Nta)+        4.919e-08   4.348e-08    -7.308    -7.362    -0.054     (0)  
   Nta-3           6.911e-12   2.620e-12   -11.160   -11.582    -0.421     (0)  
   ZnOH(Nta)-2     4.388e-12   2.851e-12   -11.358   -11.545    -0.187     (0)  
   Zn(Nta)2-4      1.356e-12   2.418e-13   -11.868   -12.617    -0.749     (0)  
O(0)          0.000e+00
   O2              0.000e+00   0.000e+00   -57.996   -57.995     0.001     (0)  
Zn            2.000e-04
   Zn+2            1.328e-04   8.628e-05    -3.877    -4.064    -0.187     (0)  
   Zn(Nta)-        6.501e-05   5.837e-05    -4.187    -4.234    -0.047     (0)  
   ZnCl+           2.168e-06   1.945e-06    -5.664    -5.711    -0.047     (0)  
   ZnCl2           2.768e-08   2.768e-08    -7.558    -7.558     0.000     (0)  
   ZnCl3-          2.199e-10   1.973e-10    -9.658    -9.705    -0.047     (0)  
   ZnOH+           9.826e-11   8.685e-11   -10.008   -10.061    -0.054     (0)  
   ZnOHCl          2.564e-11   2.564e-11   -10.591   -10.591     0.000     (0)  
   ZnOH(Nta)-2     4.388e-12   2.851e-12   -11.358   -11.545    -0.187     (0)  
   Zn(Nta)2-4      1.356e-12   2.418e-13   -11.868   -12.617    -0.749     (0)  
   ZnCl4-2         1.349e-12   8.857e-13   -11.870   -12.053    -0.183     (0)  
   Zn(OH)2         1.386e-16   1.386e-16   -15.858   -15.858     0.000     (0)  
   Zn(OH)3-        7.908e-24   6.990e-24   -23.102   -23.156    -0.054     (0)  
   Zn(OH)4-2       4.589e-33   2.801e-33   -32.338   -32.553    -0.214     (0)  

------------------------------Saturation indices-------------------------------

  Phase               SI** log IAP   log K(298 K,   1 atm)

  Halite           -5.70     -4.09    1.60  NaCl
  O2(g)           -55.09     28.00   83.09  O2
  Zincite          -9.40      1.94   11.33  ZnO
  Zn(OH)2         -10.26      1.94   12.20  Zn(OH)2
  Zn(OH)2(am)     -10.54      1.94   12.47  Zn(OH)2
  Zn(OH)2(beta)    -9.82      1.94   11.75  Zn(OH)2
  Zn(OH)2(epsilon)  -9.60      1.94   11.53  Zn(OH)2
  Zn(OH)2(gamma)   -9.80      1.94   11.73  Zn(OH)2
  Zn2(OH)3Cl      -16.37     -1.18   15.19  Zn2(OH)3Cl
  Zn5(OH)8Cl2     -38.92     -0.42   38.50  Zn5(OH)8Cl2
  ZnCl2           -15.21     -8.16    7.05  ZnCl2
  Znmetal         -37.85    -12.06   25.79  Zn
  ZnO(active)      -9.25      1.94   11.19  ZnO

**For a gas, SI = log10(fugacity). Fugacity = pressure * phi / 1 atm.
  For ideal gases, phi = 1.

------------------
End of simulation.
------------------

------------------------------------
Reading input data for simulation 4.
------------------------------------

	SOLUTION 2
	pH		3.2
	Cl		0.01		mol/kgw
	Na		0.01		mol/kgw
	Zn	0.200 	mmol/kgw
	Nta  0.200 	mmol/kgw
	END
-------------------------------------------
Beginning of initial solution calculations.
-------------------------------------------

Initial solution 2.	

-----------------------------Solution composition------------------------------

	Elements           Molality       Moles

	Cl                1.000e-02   1.000e-02
	Na                1.000e-02   1.000e-02
	Nta               2.000e-04   2.000e-04
	Zn                2.000e-04   2.000e-04

----------------------------Description of solution----------------------------

                                       pH  =   3.200    
                                       pe  =   4.000    
                        Activity of water  =   1.000
                 Ionic strength (mol/kgw)  =   1.079e-02
                       Mass of water (kg)  =   1.000e+00
                 Total alkalinity (eq/kg)  =  -6.498e-04
                         Temperature (°C)  =  25.00
                  Electrical balance (eq)  =   6.498e-04
 Percent error, 100*(Cat-|An|)/(Cat+|An|)  =   3.06
                               Iterations  =   8
                                  Total H  = 1.110145e+02
                                  Total O  = 5.550683e+01

----------------------------Distribution of species----------------------------

                                               Log       Log       Log    mole V
   Species          Molality    Activity  Molality  Activity     Gamma   cm³/mol

   H+              7.020e-04   6.310e-04    -3.154    -3.200    -0.046      0.00
   OH-             1.779e-11   1.595e-11   -10.750   -10.797    -0.047     (0)  
   H2O             5.551e+01   9.996e-01     1.744    -0.000     0.000     18.07
Cl            1.000e-02
   Cl-             9.998e-03   8.986e-03    -2.000    -2.046    -0.046     (0)  
   ZnCl+           1.829e-06   1.643e-06    -5.738    -5.784    -0.047     (0)  
   ZnCl2           2.340e-08   2.340e-08    -7.631    -7.631     0.000     (0)  
   ZnCl3-          1.859e-10   1.670e-10    -9.731    -9.777    -0.047     (0)  
   ZnOHCl          3.431e-11   3.431e-11   -10.465   -10.465     0.000     (0)  
   ZnCl4-2         1.139e-12   7.504e-13   -11.944   -12.125    -0.181     (0)  
H(0)          5.623e-18
   H2              2.811e-18   2.818e-18   -17.551   -17.550     0.001     (0)  
Na            1.000e-02
   Na+             1.000e-02   8.988e-03    -2.000    -2.046    -0.046     (0)  
Nta           2.000e-04
   Zn(Nta)-        8.660e-05   7.784e-05    -4.062    -4.109    -0.046     (0)  
   H(Nta)-2        8.074e-05   4.956e-05    -4.093    -4.305    -0.212     (0)  
   H2(Nta)-        3.091e-05   2.736e-05    -4.510    -4.563    -0.053     (0)  
   H3(Nta)         1.726e-06   1.726e-06    -5.763    -5.763     0.000     (0)  
   H4(Nta)+        1.231e-08   1.089e-08    -7.910    -7.963    -0.053     (0)  
   Nta-3           1.082e-11   4.141e-12   -10.966   -11.383    -0.417     (0)  
   ZnOH(Nta)-2     9.235e-12   6.026e-12   -11.035   -11.220    -0.185     (0)  
   Zn(Nta)2-4      2.812e-12   5.097e-13   -11.551   -12.293    -0.742     (0)  
O(0)          0.000e+00
   O2              0.000e+00   0.000e+00   -57.196   -57.195     0.001     (0)  
Zn            2.000e-04
   Zn+2            1.115e-04   7.278e-05    -3.953    -4.138    -0.185     (0)  
   Zn(Nta)-        8.660e-05   7.784e-05    -4.062    -4.109    -0.046     (0)  
   ZnCl+           1.829e-06   1.643e-06    -5.738    -5.784    -0.047     (0)  
   ZnCl2           2.340e-08   2.340e-08    -7.631    -7.631     0.000     (0)  
   ZnCl3-          1.859e-10   1.670e-10    -9.731    -9.777    -0.047     (0)  
   ZnOH+           1.312e-10   1.161e-10    -9.882    -9.935    -0.053     (0)  
   ZnOHCl          3.431e-11   3.431e-11   -10.465   -10.465     0.000     (0)  
   ZnOH(Nta)-2     9.235e-12   6.026e-12   -11.035   -11.220    -0.185     (0)  
   Zn(Nta)2-4      2.812e-12   5.097e-13   -11.551   -12.293    -0.742     (0)  
   ZnCl4-2         1.139e-12   7.504e-13   -11.944   -12.125    -0.181     (0)  
   Zn(OH)2         2.936e-16   2.936e-16   -15.532   -15.532     0.000     (0)  
   Zn(OH)3-        2.652e-23   2.347e-23   -22.576   -22.629    -0.053     (0)  
   Zn(OH)4-2       2.429e-32   1.491e-32   -31.615   -31.827    -0.212     (0)  

------------------------------Saturation indices-------------------------------

  Phase               SI** log IAP   log K(298 K,   1 atm)

  Halite           -5.70     -4.09    1.60  NaCl
  O2(g)           -54.29     28.80   83.09  O2
  Zincite          -9.07      2.26   11.33  ZnO
  Zn(OH)2          -9.94      2.26   12.20  Zn(OH)2
  Zn(OH)2(am)     -10.21      2.26   12.47  Zn(OH)2
  Zn(OH)2(beta)    -9.49      2.26   11.75  Zn(OH)2
  Zn(OH)2(epsilon)  -9.27      2.26   11.53  Zn(OH)2
  Zn(OH)2(gamma)   -9.47      2.26   11.73  Zn(OH)2
  Zn2(OH)3Cl      -15.91     -0.72   15.19  Zn2(OH)3Cl
  Zn5(OH)8Cl2     -37.68      0.82   38.50  Zn5(OH)8Cl2
  ZnCl2           -15.28     -8.23    7.05  ZnCl2
  Znmetal         -37.93    -12.14   25.79  Zn
  ZnO(active)      -8.93      2.26   11.19  ZnO

**For a gas, SI = log10(fugacity). Fugacity = pressure * phi / 1 atm.
  For ideal gases, phi = 1.

------------------
End of simulation.
------------------

------------------------------------
Reading input data for simulation 5.
------------------------------------

	SOLUTION 3
	pH		3.4
	Cl		0.01		mol/kgw
	Na		0.01		mol/kgw
	Zn	0.200 	mmol/kgw
	Nta  0.200 	mmol/kgw
	END
-------------------------------------------
Beginning of initial solution calculations.
-------------------------------------------

Initial solution 3.	

-----------------------------Solution composition------------------------------

	Elements           Molality       Moles

	Cl                1.000e-02   1.000e-02
	Na                1.000e-02   1.000e-02
	Nta               2.000e-04   2.000e-04
	Zn                2.000e-04   2.000e-04

----------------------------Description of solution----------------------------

                                       pH  =   3.400    
                                       pe  =   4.000    
                        Activity of water  =   1.000
                 Ionic strength (mol/kgw)  =   1.062e-02
                       Mass of water (kg)  =   1.000e+00
                 Total alkalinity (eq/kg)  =  -3.559e-04
                         Temperature (°C)  =  25.00
                  Electrical balance (eq)  =   3.559e-04
 Percent error, 100*(Cat-|An|)/(Cat+|An|)  =   1.70
                               Iterations  =   8
                                  Total H  = 1.110142e+02
                                  Total O  = 5.550683e+01

----------------------------Distribution of species----------------------------

                                               Log       Log       Log    mole V
   Species          Molality    Activity  Molality  Activity     Gamma   cm³/mol

   H+              4.426e-04   3.981e-04    -3.354    -3.400    -0.046      0.00
   OH-             2.817e-11   2.528e-11   -10.550   -10.597    -0.047     (0)  
   H2O             5.551e+01   9.996e-01     1.744    -0.000     0.000     18.07
Cl            1.000e-02
   Cl-             9.998e-03   8.993e-03    -2.000    -2.046    -0.046     (0)  
   ZnCl+           1.518e-06   1.365e-06    -5.819    -5.865    -0.046     (0)  
   ZnCl2           1.945e-08   1.945e-08    -7.711    -7.711     0.000     (0)  
   ZnCl3-          1.546e-10   1.389e-10    -9.811    -9.857    -0.046     (0)  
   ZnOHCl          4.517e-11   4.517e-11   -10.345   -10.345     0.000     (0)  
   ZnCl4-2         9.452e-13   6.248e-13   -12.024   -12.204    -0.180     (0)  
H(0)          2.239e-18
   H2              1.119e-18   1.122e-18   -17.951   -17.950     0.001     (0)  
Na            1.000e-02
   Na+             1.000e-02   8.995e-03    -2.000    -2.046    -0.046     (0)  
Nta           2.000e-04
   Zn(Nta)-        1.062e-04   9.550e-05    -3.974    -4.020    -0.046     (0)  
   H(Nta)-2        7.501e-05   4.623e-05    -4.125    -4.335    -0.210     (0)  
   H2(Nta)-        1.817e-05   1.610e-05    -4.741    -4.793    -0.053     (0)  
   H3(Nta)         6.411e-07   6.411e-07    -6.193    -6.193     0.000     (0)  
   H4(Nta)+        2.880e-09   2.552e-09    -8.541    -8.593    -0.053     (0)  
   ZnOH(Nta)-2     1.790e-11   1.172e-11   -10.747   -10.931    -0.184     (0)  
   Nta-3           1.589e-11   6.122e-12   -10.799   -11.213    -0.414     (0)  
   Zn(Nta)2-4      5.038e-12   9.245e-13   -11.298   -12.034    -0.736     (0)  
O(0)          0.000e+00
   O2              0.000e+00   0.000e+00   -56.396   -56.395     0.001     (0)  
Zn            2.000e-04
   Zn(Nta)-        1.062e-04   9.550e-05    -3.974    -4.020    -0.046     (0)  
   Zn+2            9.229e-05   6.041e-05    -4.035    -4.219    -0.184     (0)  
   ZnCl+           1.518e-06   1.365e-06    -5.819    -5.865    -0.046     (0)  
   ZnCl2           1.945e-08   1.945e-08    -7.711    -7.711     0.000     (0)  
   ZnOH+           1.724e-10   1.527e-10    -9.764    -9.816    -0.053     (0)  
   ZnCl3-          1.546e-10   1.389e-10    -9.811    -9.857    -0.046     (0)  
   ZnOHCl          4.517e-11   4.517e-11   -10.345   -10.345     0.000     (0)  
   ZnOH(Nta)-2     1.790e-11   1.172e-11   -10.747   -10.931    -0.184     (0)  
   Zn(Nta)2-4      5.038e-12   9.245e-13   -11.298   -12.034    -0.736     (0)  
   ZnCl4-2         9.452e-13   6.248e-13   -12.024   -12.204    -0.180     (0)  
   Zn(OH)2         6.120e-16   6.120e-16   -15.213   -15.213     0.000     (0)  
   Zn(OH)3-        8.753e-23   7.756e-23   -22.058   -22.110    -0.053     (0)  
   Zn(OH)4-2       1.267e-31   7.807e-32   -30.897   -31.108    -0.210     (0)  

------------------------------Saturation indices-------------------------------

  Phase               SI** log IAP   log K(298 K,   1 atm)

  Halite           -5.69     -4.09    1.60  NaCl
  O2(g)           -53.49     29.60   83.09  O2
  Zincite          -8.75      2.58   11.33  ZnO
  Zn(OH)2          -9.62      2.58   12.20  Zn(OH)2
  Zn(OH)2(am)      -9.89      2.58   12.47  Zn(OH)2
  Zn(OH)2(beta)    -9.17      2.58   11.75  Zn(OH)2
  Zn(OH)2(epsilon)  -8.95      2.58   11.53  Zn(OH)2
  Zn(OH)2(gamma)   -9.15      2.58   11.73  Zn(OH)2
  Zn2(OH)3Cl      -15.48     -0.28   15.19  Zn2(OH)3Cl
  Zn5(OH)8Cl2     -36.49      2.01   38.50  Zn5(OH)8Cl2
  ZnCl2           -15.36     -8.31    7.05  ZnCl2
  Znmetal         -38.01    -12.22   25.79  Zn
  ZnO(active)      -8.61      2.58   11.19  ZnO

**For a gas, SI = log10(fugacity). Fugacity = pressure * phi / 1 atm.
  For ideal gases, phi = 1.

------------------
End of simulation.
------------------

------------------------------------
Reading input data for simulation 6.
------------------------------------

	SOLUTION 4
	pH		3.6
	Cl		0.01		mol/kgw
	Na		0.01		mol/kgw
	Zn	0.200 	mmol/kgw
	Nta  0.200 	mmol/kgw
	END
-------------------------------------------
Beginning of initial solution calculations.
-------------------------------------------

Initial solution 4.	

-----------------------------Solution composition------------------------------

	Elements           Molality       Moles

	Cl                1.000e-02   1.000e-02
	Na                1.000e-02   1.000e-02
	Nta               2.000e-04   2.000e-04
	Zn                2.000e-04   2.000e-04

----------------------------Description of solution----------------------------

                                       pH  =   3.600    
                                       pe  =   4.000    
                        Activity of water  =   1.000
                 Ionic strength (mol/kgw)  =   1.049e-02
                       Mass of water (kg)  =   1.000e+00
                 Total alkalinity (eq/kg)  =  -1.667e-04
                         Temperature (°C)  =  25.00
                  Electrical balance (eq)  =   1.667e-04
 Percent error, 100*(Cat-|An|)/(Cat+|An|)  =   0.81
                               Iterations  =   8
                                  Total H  = 1.110140e+02
                                  Total O  = 5.550683e+01

----------------------------Distribution of species----------------------------

                                               Log       Log       Log    mole V
   Species          Molality    Activity  Molality  Activity     Gamma   cm³/mol

   H+              2.791e-04   2.512e-04    -3.554    -3.600    -0.046      0.00
   OH-             4.463e-11   4.007e-11   -10.350   -10.397    -0.047     (0)  
   H2O             5.551e+01   9.997e-01     1.744    -0.000     0.000     18.07
Cl            1.000e-02
   Cl-             9.999e-03   8.998e-03    -2.000    -2.046    -0.046     (0)  
   ZnCl+           1.248e-06   1.123e-06    -5.904    -5.950    -0.046     (0)  
   ZnCl2           1.601e-08   1.601e-08    -7.796    -7.796     0.000     (0)  
   ZnCl3-          1.272e-10   1.144e-10    -9.895    -9.941    -0.046     (0)  
   ZnOHCl          5.889e-11   5.889e-11   -10.230   -10.230     0.000     (0)  
   ZnCl4-2         7.772e-13   5.149e-13   -12.109   -12.288    -0.179     (0)  
H(0)          8.912e-19
   H2              4.456e-19   4.467e-19   -18.351   -18.350     0.001     (0)  
Na            1.000e-02
   Na+             1.000e-02   9.000e-03    -2.000    -2.046    -0.046     (0)  
Nta           2.000e-04
   Zn(Nta)-        1.230e-04   1.107e-04    -3.910    -3.956    -0.046     (0)  
   H(Nta)-2        6.655e-05   4.113e-05    -4.177    -4.386    -0.209     (0)  
   H2(Nta)-        1.020e-05   9.040e-06    -4.992    -5.044    -0.052     (0)  
   H3(Nta)         2.271e-07   2.271e-07    -6.644    -6.644     0.000     (0)  
   H4(Nta)+        6.433e-10   5.704e-10    -9.192    -9.244    -0.052     (0)  
   ZnOH(Nta)-2     3.282e-11   2.153e-11   -10.484   -10.667    -0.183     (0)  
   Nta-3           2.230e-11   8.634e-12   -10.652   -11.064    -0.412     (0)  
   Zn(Nta)2-4      8.164e-12   1.512e-12   -11.088   -11.821    -0.732     (0)  
O(0)          0.000e+00
   O2              0.000e+00   0.000e+00   -55.596   -55.595     0.001     (0)  
Zn            2.000e-04
   Zn(Nta)-        1.230e-04   1.107e-04    -3.910    -3.956    -0.046     (0)  
   Zn+2            7.571e-05   4.966e-05    -4.121    -4.304    -0.183     (0)  
   ZnCl+           1.248e-06   1.123e-06    -5.904    -5.950    -0.046     (0)  
   ZnCl2           1.601e-08   1.601e-08    -7.796    -7.796     0.000     (0)  
   ZnOH+           2.244e-10   1.990e-10    -9.649    -9.701    -0.052     (0)  
   ZnCl3-          1.272e-10   1.144e-10    -9.895    -9.941    -0.046     (0)  
   ZnOHCl          5.889e-11   5.889e-11   -10.230   -10.230     0.000     (0)  
   ZnOH(Nta)-2     3.282e-11   2.153e-11   -10.484   -10.667    -0.183     (0)  
   Zn(Nta)2-4      8.164e-12   1.512e-12   -11.088   -11.821    -0.732     (0)  
   ZnCl4-2         7.772e-13   5.149e-13   -12.109   -12.288    -0.179     (0)  
   Zn(OH)2         1.264e-15   1.264e-15   -14.898   -14.898     0.000     (0)  
   Zn(OH)3-        2.863e-22   2.538e-22   -21.543   -21.595    -0.052     (0)  
   Zn(OH)4-2       6.552e-31   4.050e-31   -30.184   -30.393    -0.209     (0)  

------------------------------Saturation indices-------------------------------

  Phase               SI** log IAP   log K(298 K,   1 atm)

  Halite           -5.69     -4.09    1.60  NaCl
  O2(g)           -52.69     30.40   83.09  O2
  Zincite          -8.44      2.90   11.33  ZnO
  Zn(OH)2          -9.30      2.90   12.20  Zn(OH)2
  Zn(OH)2(am)      -9.58      2.90   12.47  Zn(OH)2
  Zn(OH)2(beta)    -8.86      2.90   11.75  Zn(OH)2
  Zn(OH)2(epsilon)  -8.64      2.90   11.53  Zn(OH)2
  Zn(OH)2(gamma)   -8.84      2.90   11.73  Zn(OH)2
  Zn2(OH)3Cl      -15.05      0.15   15.19  Zn2(OH)3Cl
  Zn5(OH)8Cl2     -35.31      3.19   38.50  Zn5(OH)8Cl2
  ZnCl2           -15.45     -8.40    7.05  ZnCl2
  Znmetal         -38.09    -12.30   25.79  Zn
  ZnO(active)      -8.29      2.90   11.19  ZnO

**For a gas, SI = log10(fugacity). Fugacity = pressure * phi / 1 atm.
  For ideal gases, phi = 1.

------------------
End of simulation.
------------------

------------------------------------
Reading input data for simulation 7.
------------------------------------

	SOLUTION 5
	pH		3.8
	Cl		0.01		mol/kgw
	Na		0.01		mol/kgw
	Zn	0.200 	mmol/kgw
	Nta  0.200 	mmol/kgw
	END
-------------------------------------------
Beginning of initial solution calculations.
-------------------------------------------

Initial solution 5.	

-----------------------------Solution composition------------------------------

	Elements           Molality       Moles

	Cl                1.000e-02   1.000e-02
	Na                1.000e-02   1.000e-02
	Nta               2.000e-04   2.000e-04
	Zn                2.000e-04   2.000e-04

----------------------------Description of solution----------------------------

                                       pH  =   3.800    
                                       pe  =   4.000    
                        Activity of water  =   1.000
                 Ionic strength (mol/kgw)  =   1.040e-02
                       Mass of water (kg)  =   1.000e+00
                 Total alkalinity (eq/kg)  =  -4.454e-05
                         Temperature (°C)  =  25.00
                  Electrical balance (eq)  =   4.454e-05
 Percent error, 100*(Cat-|An|)/(Cat+|An|)  =   0.22
                               Iterations  =   8
                                  Total H  = 1.110139e+02
                                  Total O  = 5.550683e+01

----------------------------Distribution of species----------------------------

                                               Log       Log       Log    mole V
   Species          Molality    Activity  Molality  Activity     Gamma   cm³/mol

   H+              1.760e-04   1.585e-04    -3.754    -3.800    -0.046      0.00
   OH-             7.070e-11   6.351e-11   -10.151   -10.197    -0.047     (0)  
   H2O             5.551e+01   9.997e-01     1.744    -0.000     0.000     18.07
Cl            1.000e-02
   Cl-             9.999e-03   9.002e-03    -2.000    -2.046    -0.046     (0)  
   ZnCl+           1.020e-06   9.178e-07    -5.991    -6.037    -0.046     (0)  
   ZnCl2           1.310e-08   1.310e-08    -7.883    -7.883     0.000     (0)  
   ZnCl3-          1.041e-10   9.364e-11    -9.983   -10.029    -0.046     (0)  
   ZnOHCl          7.631e-11   7.631e-11   -10.117   -10.117     0.000     (0)  
   ZnCl4-2         6.353e-13   4.215e-13   -12.197   -12.375    -0.178     (0)  
H(0)          3.548e-19
   H2              1.774e-19   1.778e-19   -18.751   -18.750     0.001     (0)  
Na            1.000e-02
   Na+             1.000e-02   9.003e-03    -2.000    -2.046    -0.046     (0)  
Nta           2.000e-04
   Zn(Nta)-        1.372e-04   1.235e-04    -3.863    -3.908    -0.046     (0)  
   H(Nta)-2        5.719e-05   3.543e-05    -4.243    -4.451    -0.208     (0)  
   H2(Nta)-        5.538e-06   4.913e-06    -5.257    -5.309    -0.052     (0)  
   H3(Nta)         7.786e-08   7.786e-08    -7.109    -7.109     0.000     (0)  
   H4(Nta)+        1.391e-10   1.234e-10    -9.857    -9.909    -0.052     (0)  
   ZnOH(Nta)-2     5.794e-11   3.807e-11   -10.237   -10.419    -0.182     (0)  
   Nta-3           3.032e-11   1.178e-11   -10.518   -10.929    -0.410     (0)  
   Zn(Nta)2-4      1.235e-11   2.302e-12   -10.908   -11.638    -0.730     (0)  
O(0)          0.000e+00
   O2              0.000e+00   0.000e+00   -54.796   -54.795     0.001     (0)  
Zn            2.000e-04
   Zn(Nta)-        1.372e-04   1.235e-04    -3.863    -3.908    -0.046     (0)  
   Zn+2            6.178e-05   4.059e-05    -4.209    -4.392    -0.182     (0)  
   ZnCl+           1.020e-06   9.178e-07    -5.991    -6.037    -0.046     (0)  
   ZnCl2           1.310e-08   1.310e-08    -7.883    -7.883     0.000     (0)  
   ZnOH+           2.906e-10   2.578e-10    -9.537    -9.589    -0.052     (0)  
   ZnCl3-          1.041e-10   9.364e-11    -9.983   -10.029    -0.046     (0)  
   ZnOHCl          7.631e-11   7.631e-11   -10.117   -10.117     0.000     (0)  
   ZnOH(Nta)-2     5.794e-11   3.807e-11   -10.237   -10.419    -0.182     (0)  
   Zn(Nta)2-4      1.235e-11   2.302e-12   -10.908   -11.638    -0.730     (0)  
   ZnCl4-2         6.353e-13   4.215e-13   -12.197   -12.375    -0.178     (0)  
   Zn(OH)2         2.595e-15   2.595e-15   -14.586   -14.586     0.000     (0)  
   Zn(OH)3-        9.310e-22   8.259e-22   -21.031   -21.083    -0.052     (0)  
   Zn(OH)4-2       3.371e-30   2.088e-30   -29.472   -29.680    -0.208     (0)  

------------------------------Saturation indices-------------------------------

  Phase               SI** log IAP   log K(298 K,   1 atm)

  Halite           -5.69     -4.09    1.60  NaCl
  O2(g)           -51.89     31.20   83.09  O2
  Zincite          -8.13      3.21   11.33  ZnO
  Zn(OH)2          -8.99      3.21   12.20  Zn(OH)2
  Zn(OH)2(am)      -9.27      3.21   12.47  Zn(OH)2
  Zn(OH)2(beta)    -8.55      3.21   11.75  Zn(OH)2
  Zn(OH)2(epsilon)  -8.33      3.21   11.53  Zn(OH)2
  Zn(OH)2(gamma)   -8.53      3.21   11.73  Zn(OH)2
  Zn2(OH)3Cl      -14.62      0.57   15.19  Zn2(OH)3Cl
  Zn5(OH)8Cl2     -34.15      4.35   38.50  Zn5(OH)8Cl2
  ZnCl2           -15.53     -8.48    7.05  ZnCl2
  Znmetal         -38.18    -12.39   25.79  Zn
  ZnO(active)      -7.98      3.21   11.19  ZnO

**For a gas, SI = log10(fugacity). Fugacity = pressure * phi / 1 atm.
  For ideal gases, phi = 1.

------------------
End of simulation.
------------------

------------------------------------
Reading input data for simulation 8.
------------------------------------

	SOLUTION 6
	pH		4.0
	Cl		0.01		mol/kgw
	Na		0.01		mol/kgw
	Zn	0.200 	mmol/kgw
	Nta  0.200 	mmol/kgw
	END
-------------------------------------------
Beginning of initial solution calculations.
-------------------------------------------

Initial solution 6.	

-----------------------------Solution composition------------------------------

	Elements           Molality       Moles

	Cl                1.000e-02   1.000e-02
	Na                1.000e-02   1.000e-02
	Nta               2.000e-04   2.000e-04
	Zn                2.000e-04   2.000e-04

----------------------------Description of solution----------------------------

                                       pH  =   4.000    
                                       pe  =   4.000    
                        Activity of water  =   1.000
                 Ionic strength (mol/kgw)  =   1.033e-02
                       Mass of water (kg)  =   1.000e+00
                 Total alkalinity (eq/kg)  =   3.492e-05
                         Temperature (°C)  =  25.00
                  Electrical balance (eq)  =  -3.492e-05
 Percent error, 100*(Cat-|An|)/(Cat+|An|)  =  -0.17
                               Iterations  =   8
                                  Total H  = 1.110138e+02
                                  Total O  = 5.550683e+01

----------------------------Distribution of species----------------------------

                                               Log       Log       Log    mole V
   Species          Molality    Activity  Molality  Activity     Gamma   cm³/mol

   H+              1.110e-04   1.000e-04    -3.955    -4.000    -0.045      0.00
   OH-             1.120e-10   1.007e-10    -9.951    -9.997    -0.046     (0)  
   H2O             5.551e+01   9.997e-01     1.744    -0.000     0.000     18.07
Cl            1.000e-02
   Cl-             9.999e-03   9.005e-03    -2.000    -2.046    -0.045     (0)  
   ZnCl+           8.301e-07   7.471e-07    -6.081    -6.127    -0.046     (0)  
   ZnCl2           1.066e-08   1.066e-08    -7.972    -7.972     0.000     (0)  
   ZnOHCl          9.846e-11   9.846e-11   -10.007   -10.007     0.000     (0)  
   ZnCl3-          8.474e-11   7.627e-11   -10.072   -10.118    -0.046     (0)  
   ZnCl4-2         5.171e-13   3.435e-13   -12.286   -12.464    -0.178     (0)  
H(0)          1.413e-19
   H2              7.063e-20   7.079e-20   -19.151   -19.150     0.001     (0)  
Na            1.000e-02
   Na+             1.000e-02   9.006e-03    -2.000    -2.045    -0.045     (0)  
Nta           2.000e-04
   Zn(Nta)-        1.489e-04   1.341e-04    -3.827    -3.872    -0.045     (0)  
   H(Nta)-2        4.808e-05   2.983e-05    -4.318    -4.525    -0.207     (0)  
   H2(Nta)-        2.941e-06   2.610e-06    -5.532    -5.583    -0.052     (0)  
   H3(Nta)         2.610e-08   2.610e-08    -7.583    -7.583     0.000     (0)  
   ZnOH(Nta)-2     9.961e-11   6.553e-11   -10.002   -10.184    -0.182     (0)  
   Nta-3           4.036e-11   1.573e-11   -10.394   -10.803    -0.409     (0)  
   H4(Nta)+        2.941e-11   2.610e-11   -10.532   -10.583    -0.052     (0)  
   Zn(Nta)2-4      1.781e-11   3.336e-12   -10.749   -11.477    -0.728     (0)  
O(0)          0.000e+00
   O2              0.000e+00   0.000e+00   -53.996   -53.995     0.001     (0)  
Zn            2.000e-04
   Zn(Nta)-        1.489e-04   1.341e-04    -3.827    -3.872    -0.045     (0)  
   Zn+2            5.021e-05   3.303e-05    -4.299    -4.481    -0.182     (0)  
   ZnCl+           8.301e-07   7.471e-07    -6.081    -6.127    -0.046     (0)  
   ZnCl2           1.066e-08   1.066e-08    -7.972    -7.972     0.000     (0)  
   ZnOH+           3.746e-10   3.325e-10    -9.426    -9.478    -0.052     (0)  
   ZnOH(Nta)-2     9.961e-11   6.553e-11   -10.002   -10.184    -0.182     (0)  
   ZnOHCl          9.846e-11   9.846e-11   -10.007   -10.007     0.000     (0)  
   ZnCl3-          8.474e-11   7.627e-11   -10.072   -10.118    -0.046     (0)  
   Zn(Nta)2-4      1.781e-11   3.336e-12   -10.749   -11.477    -0.728     (0)  
   ZnCl4-2         5.171e-13   3.435e-13   -12.286   -12.464    -0.178     (0)  
   Zn(OH)2         5.304e-15   5.304e-15   -14.275   -14.275     0.000     (0)  
   Zn(OH)3-        3.015e-21   2.676e-21   -20.521   -20.573    -0.052     (0)  
   Zn(OH)4-2       1.728e-29   1.072e-29   -28.762   -28.970    -0.207     (0)  

------------------------------Saturation indices-------------------------------

  Phase               SI** log IAP   log K(298 K,   1 atm)

  Halite           -5.69     -4.09    1.60  NaCl
  O2(g)           -51.09     32.00   83.09  O2
  Zincite          -7.82      3.52   11.33  ZnO
  Zn(OH)2          -8.68      3.52   12.20  Zn(OH)2
  Zn(OH)2(am)      -8.96      3.52   12.47  Zn(OH)2
  Zn(OH)2(beta)    -8.24      3.52   11.75  Zn(OH)2
  Zn(OH)2(epsilon)  -8.02      3.52   11.53  Zn(OH)2
  Zn(OH)2(gamma)   -8.22      3.52   11.73  Zn(OH)2
  Zn2(OH)3Cl      -14.20      0.99   15.19  Zn2(OH)3Cl
  Zn5(OH)8Cl2     -33.00      5.50   38.50  Zn5(OH)8Cl2
  ZnCl2           -15.62     -8.57    7.05  ZnCl2
  Znmetal         -38.27    -12.48   25.79  Zn
  ZnO(active)      -7.67      3.52   11.19  ZnO

**For a gas, SI = log10(fugacity). Fugacity = pressure * phi / 1 atm.
  For ideal gases, phi = 1.

------------------
End of simulation.
------------------

------------------------------------
Reading input data for simulation 9.
------------------------------------

	SOLUTION 7
	pH		4.2
	Cl		0.01		mol/kgw
	Na		0.01		mol/kgw
	Zn	0.200 	mmol/kgw
	Nta  0.200 	mmol/kgw
	END
-------------------------------------------
Beginning of initial solution calculations.
-------------------------------------------

Initial solution 7.	

-----------------------------Solution composition------------------------------

	Elements           Molality       Moles

	Cl                1.000e-02   1.000e-02
	Na                1.000e-02   1.000e-02
	Nta               2.000e-04   2.000e-04
	Zn                2.000e-04   2.000e-04

----------------------------Description of solution----------------------------

                                       pH  =   4.200    
                                       pe  =   4.000    
                        Activity of water  =   1.000
                 Ionic strength (mol/kgw)  =   1.028e-02
                       Mass of water (kg)  =   1.000e+00
                 Total alkalinity (eq/kg)  =   8.704e-05
                         Temperature (°C)  =  25.00
                  Electrical balance (eq)  =  -8.704e-05
 Percent error, 100*(Cat-|An|)/(Cat+|An|)  =  -0.43
                               Iterations  =   8
                                  Total H  = 1.110138e+02
                                  Total O  = 5.550683e+01

----------------------------Distribution of species----------------------------

                                               Log       Log       Log    mole V
   Species          Molality    Activity  Molality  Activity     Gamma   cm³/mol

   H+              7.004e-05   6.310e-05    -4.155    -4.200    -0.045      0.00
   OH-             1.775e-10   1.595e-10    -9.751    -9.797    -0.046     (0)  
   H2O             5.551e+01   9.997e-01     1.744    -0.000     0.000     18.07
Cl            1.000e-02
   Cl-             9.999e-03   9.007e-03    -2.000    -2.045    -0.045     (0)  
   ZnCl+           6.731e-07   6.060e-07    -6.172    -6.218    -0.046     (0)  
   ZnCl2           8.651e-09   8.651e-09    -8.063    -8.063     0.000     (0)  
   ZnOHCl          1.266e-10   1.266e-10    -9.898    -9.898     0.000     (0)  
   ZnCl3-          6.875e-11   6.189e-11   -10.163   -10.208    -0.046     (0)  
   ZnCl4-2         4.193e-13   2.788e-13   -12.377   -12.555    -0.177     (0)  
H(0)          5.623e-20
   H2              2.812e-20   2.818e-20   -19.551   -19.550     0.001     (0)  
Na            1.000e-02
   Na+             1.000e-02   9.008e-03    -2.000    -2.045    -0.045     (0)  
Nta           2.000e-04
   Zn(Nta)-        1.586e-04   1.429e-04    -3.800    -3.845    -0.045     (0)  
   H(Nta)-2        3.981e-05   2.473e-05    -4.400    -4.607    -0.207     (0)  
   H2(Nta)-        1.538e-06   1.365e-06    -5.813    -5.865    -0.052     (0)  
   H3(Nta)         8.614e-09   8.614e-09    -8.065    -8.065     0.000     (0)  
   ZnOH(Nta)-2     1.680e-10   1.106e-10    -9.775    -9.956    -0.181     (0)  
   Nta-3           5.291e-11   2.066e-11   -10.276   -10.685    -0.408     (0)  
   Zn(Nta)2-4      2.484e-11   4.669e-12   -10.605   -11.331    -0.726     (0)  
   H4(Nta)+        6.122e-12   5.435e-12   -11.213   -11.265    -0.052     (0)  
O(0)          0.000e+00
   O2              0.000e+00   0.000e+00   -53.196   -53.195     0.001     (0)  
Zn            2.000e-04
   Zn(Nta)-        1.586e-04   1.429e-04    -3.800    -3.845    -0.045     (0)  
   Zn+2            4.068e-05   2.678e-05    -4.391    -4.572    -0.181     (0)  
   ZnCl+           6.731e-07   6.060e-07    -6.172    -6.218    -0.046     (0)  
   ZnCl2           8.651e-09   8.651e-09    -8.063    -8.063     0.000     (0)  
   ZnOH+           4.813e-10   4.273e-10    -9.318    -9.369    -0.052     (0)  
   ZnOH(Nta)-2     1.680e-10   1.106e-10    -9.775    -9.956    -0.181     (0)  
   ZnOHCl          1.266e-10   1.266e-10    -9.898    -9.898     0.000     (0)  
   ZnCl3-          6.875e-11   6.189e-11   -10.163   -10.208    -0.046     (0)  
   Zn(Nta)2-4      2.484e-11   4.669e-12   -10.605   -11.331    -0.726     (0)  
   ZnCl4-2         4.193e-13   2.788e-13   -12.377   -12.555    -0.177     (0)  
   Zn(OH)2         1.080e-14   1.080e-14   -13.966   -13.966     0.000     (0)  
   Zn(OH)3-        9.730e-21   8.638e-21   -20.012   -20.064    -0.052     (0)  
   Zn(OH)4-2       8.832e-29   5.486e-29   -28.054   -28.261    -0.207     (0)  

------------------------------Saturation indices-------------------------------

  Phase               SI** log IAP   log K(298 K,   1 atm)

  Halite           -5.69     -4.09    1.60  NaCl
  O2(g)           -50.29     32.80   83.09  O2
  Zincite          -7.51      3.83   11.33  ZnO
  Zn(OH)2          -8.37      3.83   12.20  Zn(OH)2
  Zn(OH)2(am)      -8.65      3.83   12.47  Zn(OH)2
  Zn(OH)2(beta)    -7.93      3.83   11.75  Zn(OH)2
  Zn(OH)2(epsilon)  -7.71      3.83   11.53  Zn(OH)2
  Zn(OH)2(gamma)   -7.91      3.83   11.73  Zn(OH)2
  Zn2(OH)3Cl      -13.78      1.41   15.19  Zn2(OH)3Cl
  Zn5(OH)8Cl2     -31.85      6.65   38.50  Zn5(OH)8Cl2
  ZnCl2           -15.71     -8.66    7.05  ZnCl2
  Znmetal         -38.36    -12.57   25.79  Zn
  ZnO(active)      -7.36      3.83   11.19  ZnO

**For a gas, SI = log10(fugacity). Fugacity = pressure * phi / 1 atm.
  For ideal gases, phi = 1.

------------------
End of simulation.
------------------

-------------------------------------
Reading input data for simulation 10.
-------------------------------------

	SOLUTION 8
	pH		4.4
	Cl		0.01		mol/kgw
	Na		0.01		mol/kgw
	Zn	0.200 	mmol/kgw
	Nta  0.200 	mmol/kgw
	END
-------------------------------------------
Beginning of initial solution calculations.
-------------------------------------------

Initial solution 8.	

-----------------------------Solution composition------------------------------

	Elements           Molality       Moles

	Cl                1.000e-02   1.000e-02
	Na                1.000e-02   1.000e-02
	Nta               2.000e-04   2.000e-04
	Zn                2.000e-04   2.000e-04

----------------------------Description of solution----------------------------

                                       pH  =   4.400    
                                       pe  =   4.000    
                        Activity of water  =   1.000
                 Ionic strength (mol/kgw)  =   1.024e-02
                       Mass of water (kg)  =   1.000e+00
                 Total alkalinity (eq/kg)  =   1.216e-04
                         Temperature (°C)  =  25.00
                  Electrical balance (eq)  =  -1.216e-04
 Percent error, 100*(Cat-|An|)/(Cat+|An|)  =  -0.60
                               Iterations  =   8
                                  Total H  = 1.110137e+02
                                  Total O  = 5.550683e+01

----------------------------Distribution of species----------------------------

                                               Log       Log       Log    mole V
   Species          Molality    Activity  Molality  Activity     Gamma   cm³/mol

   H+              4.419e-05   3.981e-05    -4.355    -4.400    -0.045      0.00
   OH-             2.812e-10   2.528e-10    -9.551    -9.597    -0.046     (0)  
   H2O             5.551e+01   9.997e-01     1.744    -0.000     0.000     18.07
Cl            1.000e-02
   Cl-             9.999e-03   9.009e-03    -2.000    -2.045    -0.045     (0)  
   ZnCl+           5.441e-07   4.899e-07    -6.264    -6.310    -0.046     (0)  
   ZnCl2           6.995e-09   6.995e-09    -8.155    -8.155     0.000     (0)  
   ZnOHCl          1.622e-10   1.622e-10    -9.790    -9.790     0.000     (0)  
   ZnCl3-          5.559e-11   5.006e-11   -10.255   -10.301    -0.046     (0)  
   ZnCl4-2         3.390e-13   2.255e-13   -12.470   -12.647    -0.177     (0)  
H(0)          2.239e-20
   H2              1.119e-20   1.122e-20   -19.951   -19.950     0.001     (0)  
Na            1.000e-02
   Na+             1.000e-02   9.010e-03    -2.000    -2.045    -0.045     (0)  
Nta           2.000e-04
   Zn(Nta)-        1.666e-04   1.501e-04    -3.778    -3.824    -0.045     (0)  
   H(Nta)-2        3.261e-05   2.027e-05    -4.487    -4.693    -0.206     (0)  
   H2(Nta)-        7.953e-07   7.062e-07    -6.099    -6.151    -0.052     (0)  
   H3(Nta)         2.811e-09   2.811e-09    -8.551    -8.551     0.000     (0)  
   ZnOH(Nta)-2     2.795e-10   1.842e-10    -9.554    -9.735    -0.181     (0)  
   Nta-3           6.864e-11   2.685e-11   -10.163   -10.571    -0.408     (0)  
   Zn(Nta)2-4      3.381e-11   6.372e-12   -10.471   -11.196    -0.725     (0)  
   H4(Nta)+        1.260e-12   1.119e-12   -11.899   -11.951    -0.052     (0)  
O(0)          0.000e+00
   O2              0.000e+00   0.000e+00   -52.396   -52.395     0.001     (0)  
Zn            2.000e-04
   Zn(Nta)-        1.666e-04   1.501e-04    -3.778    -3.824    -0.045     (0)  
   Zn+2            3.286e-05   2.165e-05    -4.483    -4.665    -0.181     (0)  
   ZnCl+           5.441e-07   4.899e-07    -6.264    -6.310    -0.046     (0)  
   ZnCl2           6.995e-09   6.995e-09    -8.155    -8.155     0.000     (0)  
   ZnOH+           6.164e-10   5.474e-10    -9.210    -9.262    -0.052     (0)  
   ZnOH(Nta)-2     2.795e-10   1.842e-10    -9.554    -9.735    -0.181     (0)  
   ZnOHCl          1.622e-10   1.622e-10    -9.790    -9.790     0.000     (0)  
   ZnCl3-          5.559e-11   5.006e-11   -10.255   -10.301    -0.046     (0)  
   Zn(Nta)2-4      3.381e-11   6.372e-12   -10.471   -11.196    -0.725     (0)  
   ZnCl4-2         3.390e-13   2.255e-13   -12.470   -12.647    -0.177     (0)  
   Zn(OH)2         2.193e-14   2.193e-14   -13.659   -13.659     0.000     (0)  
   Zn(OH)3-        3.130e-20   2.780e-20   -19.504   -19.556    -0.052     (0)  
   Zn(OH)4-2       4.500e-28   2.798e-28   -27.347   -27.553    -0.206     (0)  

------------------------------Saturation indices-------------------------------

  Phase               SI** log IAP   log K(298 K,   1 atm)

  Halite           -5.69     -4.09    1.60  NaCl
  O2(g)           -49.49     33.60   83.09  O2
  Zincite          -7.20      4.14   11.33  ZnO
  Zn(OH)2          -8.06      4.14   12.20  Zn(OH)2
  Zn(OH)2(am)      -8.34      4.14   12.47  Zn(OH)2
  Zn(OH)2(beta)    -7.62      4.14   11.75  Zn(OH)2
  Zn(OH)2(epsilon)  -7.40      4.14   11.53  Zn(OH)2
  Zn(OH)2(gamma)   -7.60      4.14   11.73  Zn(OH)2
  Zn2(OH)3Cl      -13.37      1.83   15.19  Zn2(OH)3Cl
  Zn5(OH)8Cl2     -30.71      7.79   38.50  Zn5(OH)8Cl2
  ZnCl2           -15.81     -8.76    7.05  ZnCl2
  Znmetal         -38.45    -12.66   25.79  Zn
  ZnO(active)      -7.05      4.14   11.19  ZnO

**For a gas, SI = log10(fugacity). Fugacity = pressure * phi / 1 atm.
  For ideal gases, phi = 1.

------------------
End of simulation.
------------------

-------------------------------------
Reading input data for simulation 11.
-------------------------------------

	SOLUTION 9
	pH		4.6
	Cl		0.01		mol/kgw
	Na		0.01		mol/kgw
	Zn	0.200 	mmol/kgw
	Nta  0.200 	mmol/kgw
	END
-------------------------------------------
Beginning of initial solution calculations.
-------------------------------------------

Initial solution 9.	

-----------------------------Solution composition------------------------------

	Elements           Molality       Moles

	Cl                1.000e-02   1.000e-02
	Na                1.000e-02   1.000e-02
	Nta               2.000e-04   2.000e-04
	Zn                2.000e-04   2.000e-04

----------------------------Description of solution----------------------------

                                       pH  =   4.600    
                                       pe  =   4.000    
                        Activity of water  =   1.000
                 Ionic strength (mol/kgw)  =   1.021e-02
                       Mass of water (kg)  =   1.000e+00
                 Total alkalinity (eq/kg)  =   1.448e-04
                         Temperature (°C)  =  25.00
                  Electrical balance (eq)  =  -1.448e-04
 Percent error, 100*(Cat-|An|)/(Cat+|An|)  =  -0.71
                               Iterations  =   8
                                  Total H  = 1.110137e+02
                                  Total O  = 5.550683e+01

----------------------------Distribution of species----------------------------

                                               Log       Log       Log    mole V
   Species          Molality    Activity  Molality  Activity     Gamma   cm³/mol

   H+              2.788e-05   2.512e-05    -4.555    -4.600    -0.045      0.00
   OH-             4.457e-10   4.007e-10    -9.351    -9.397    -0.046     (0)  
   H2O             5.551e+01   9.997e-01     1.744    -0.000     0.000     18.07
Cl            1.000e-02
   Cl-             1.000e-02   9.010e-03    -2.000    -2.045    -0.045     (0)  
   ZnCl+           4.386e-07   3.949e-07    -6.358    -6.403    -0.045     (0)  
   ZnCl2           5.640e-09   5.640e-09    -8.249    -8.249     0.000     (0)  
   ZnOHCl          2.072e-10   2.072e-10    -9.684    -9.684     0.000     (0)  
   ZnCl3-          4.482e-11   4.037e-11   -10.348   -10.394    -0.045     (0)  
   ZnCl4-2         2.732e-13   1.819e-13   -12.563   -12.740    -0.177     (0)  
H(0)          8.913e-21
   H2              4.456e-21   4.467e-21   -20.351   -20.350     0.001     (0)  
Na            1.000e-02
   Na+             1.000e-02   9.011e-03    -2.000    -2.045    -0.045     (0)  
Nta           2.000e-04
   Zn(Nta)-        1.731e-04   1.560e-04    -3.762    -3.807    -0.045     (0)  
   H(Nta)-2        2.651e-05   1.649e-05    -4.577    -4.783    -0.206     (0)  
   H2(Nta)-        4.081e-07   3.624e-07    -6.389    -6.441    -0.052     (0)  
   H3(Nta)         9.104e-10   9.104e-10    -9.041    -9.041     0.000     (0)  
   ZnOH(Nta)-2     4.601e-10   3.033e-10    -9.337    -9.518    -0.181     (0)  
   Nta-3           8.838e-11   3.461e-11   -10.054   -10.461    -0.407     (0)  
   Zn(Nta)2-4      4.519e-11   8.536e-12   -10.345   -11.069    -0.724     (0)  
   H4(Nta)+        2.575e-13   2.287e-13   -12.589   -12.641    -0.052     (0)  
O(0)          0.000e+00
   O2              0.000e+00   0.000e+00   -51.596   -51.595     0.001     (0)  
Zn            2.000e-04
   Zn(Nta)-        1.731e-04   1.560e-04    -3.762    -3.807    -0.045     (0)  
   Zn+2            2.647e-05   1.745e-05    -4.577    -4.758    -0.181     (0)  
   ZnCl+           4.386e-07   3.949e-07    -6.358    -6.403    -0.045     (0)  
   ZnCl2           5.640e-09   5.640e-09    -8.249    -8.249     0.000     (0)  
   ZnOH+           7.874e-10   6.993e-10    -9.104    -9.155    -0.052     (0)  
   ZnOH(Nta)-2     4.601e-10   3.033e-10    -9.337    -9.518    -0.181     (0)  
   ZnOHCl          2.072e-10   2.072e-10    -9.684    -9.684     0.000     (0)  
   Zn(Nta)2-4      4.519e-11   8.536e-12   -10.345   -11.069    -0.724     (0)  
   ZnCl3-          4.482e-11   4.037e-11   -10.348   -10.394    -0.045     (0)  
   ZnCl4-2         2.732e-13   1.819e-13   -12.563   -12.740    -0.177     (0)  
   Zn(OH)2         4.441e-14   4.441e-14   -13.353   -13.353     0.000     (0)  
   Zn(OH)3-        1.004e-19   8.920e-20   -18.998   -19.050    -0.052     (0)  
   Zn(OH)4-2       2.287e-27   1.423e-27   -26.641   -26.847    -0.206     (0)  

------------------------------Saturation indices-------------------------------

  Phase               SI** log IAP   log K(298 K,   1 atm)

  Halite           -5.69     -4.09    1.60  NaCl
  O2(g)           -48.69     34.40   83.09  O2
  Zincite          -6.89      4.44   11.33  ZnO
  Zn(OH)2          -7.76      4.44   12.20  Zn(OH)2
  Zn(OH)2(am)      -8.03      4.44   12.47  Zn(OH)2
  Zn(OH)2(beta)    -7.31      4.44   11.75  Zn(OH)2
  Zn(OH)2(epsilon)  -7.09      4.44   11.53  Zn(OH)2
  Zn(OH)2(gamma)   -7.29      4.44   11.73  Zn(OH)2
  Zn2(OH)3Cl      -12.95      2.24   15.19  Zn2(OH)3Cl
  Zn5(OH)8Cl2     -29.58      8.92   38.50  Zn5(OH)8Cl2
  ZnCl2           -15.90     -8.85    7.05  ZnCl2
  Znmetal         -38.55    -12.76   25.79  Zn
  ZnO(active)      -6.75      4.44   11.19  ZnO

**For a gas, SI = log10(fugacity). Fugacity = pressure * phi / 1 atm.
  For ideal gases, phi = 1.

------------------
End of simulation.
------------------

-------------------------------------
Reading input data for simulation 12.
-------------------------------------

	SOLUTION 10
	pH		4.8
	Cl		0.01		mol/kgw
	Na		0.01		mol/kgw
	Zn	0.200 	mmol/kgw
	Nta  0.200 	mmol/kgw
	END
-------------------------------------------
Beginning of initial solution calculations.
-------------------------------------------

Initial solution 10.	

-----------------------------Solution composition------------------------------

	Elements           Molality       Moles

	Cl                1.000e-02   1.000e-02
	Na                1.000e-02   1.000e-02
	Nta               2.000e-04   2.000e-04
	Zn                2.000e-04   2.000e-04

----------------------------Description of solution----------------------------

                                       pH  =   4.800    
                                       pe  =   4.000    
                        Activity of water  =   1.000
                 Ionic strength (mol/kgw)  =   1.018e-02
                       Mass of water (kg)  =   1.000e+00
                 Total alkalinity (eq/kg)  =   1.606e-04
                         Temperature (°C)  =  25.00
                  Electrical balance (eq)  =  -1.606e-04
 Percent error, 100*(Cat-|An|)/(Cat+|An|)  =  -0.79
                               Iterations  =   8
                                  Total H  = 1.110137e+02
                                  Total O  = 5.550683e+01

----------------------------Distribution of species----------------------------

                                               Log       Log       Log    mole V
   Species          Molality    Activity  Molality  Activity     Gamma   cm³/mol

   H+              1.759e-05   1.585e-05    -4.755    -4.800    -0.045      0.00
   OH-             7.063e-10   6.351e-10    -9.151    -9.197    -0.046     (0)  
   H2O             5.551e+01   9.997e-01     1.744    -0.000     0.000     18.07
Cl            1.000e-02
   Cl-             1.000e-02   9.011e-03    -2.000    -2.045    -0.045     (0)  
   ZnCl+           3.526e-07   3.176e-07    -6.453    -6.498    -0.045     (0)  
   ZnCl2           4.536e-09   4.536e-09    -8.343    -8.343     0.000     (0)  
   ZnOHCl          2.641e-10   2.641e-10    -9.578    -9.578     0.000     (0)  
   ZnCl3-          3.605e-11   3.247e-11   -10.443   -10.489    -0.045     (0)  
   ZnCl4-2         2.197e-13   1.463e-13   -12.658   -12.835    -0.177     (0)  
H(0)          3.548e-21
   H2              1.774e-21   1.778e-21   -20.751   -20.750     0.001     (0)  
Na            1.000e-02
   Na+             1.000e-02   9.012e-03    -2.000    -2.045    -0.045     (0)  
Nta           2.000e-04
   Zn(Nta)-        1.784e-04   1.607e-04    -3.749    -3.794    -0.045     (0)  
   H(Nta)-2        2.142e-05   1.334e-05    -4.669    -4.875    -0.206     (0)  
   H2(Nta)-        2.082e-07   1.849e-07    -6.681    -6.733    -0.051     (0)  
   ZnOH(Nta)-2     7.512e-10   4.954e-10    -9.124    -9.305    -0.181     (0)  
   H3(Nta)         2.931e-10   2.931e-10    -9.533    -9.533     0.000     (0)  
   Nta-3           1.132e-10   4.436e-11    -9.946   -10.353    -0.407     (0)  
   Zn(Nta)2-4      5.960e-11   1.128e-11   -10.225   -10.948    -0.723     (0)  
   H4(Nta)+        5.230e-14   4.645e-14   -13.281   -13.333    -0.051     (0)  
O(0)          0.000e+00
   O2              0.000e+00   0.000e+00   -50.796   -50.795     0.001     (0)  
Zn            2.000e-04
   Zn(Nta)-        1.784e-04   1.607e-04    -3.749    -3.794    -0.045     (0)  
   Zn+2            2.127e-05   1.403e-05    -4.672    -4.853    -0.181     (0)  
   ZnCl+           3.526e-07   3.176e-07    -6.453    -6.498    -0.045     (0)  
   ZnCl2           4.536e-09   4.536e-09    -8.343    -8.343     0.000     (0)  
   ZnOH+           1.003e-09   8.911e-10    -8.999    -9.050    -0.051     (0)  
   ZnOH(Nta)-2     7.512e-10   4.954e-10    -9.124    -9.305    -0.181     (0)  
   ZnOHCl          2.641e-10   2.641e-10    -9.578    -9.578     0.000     (0)  
   Zn(Nta)2-4      5.960e-11   1.128e-11   -10.225   -10.948    -0.723     (0)  
   ZnCl3-          3.605e-11   3.247e-11   -10.443   -10.489    -0.045     (0)  
   ZnCl4-2         2.197e-13   1.463e-13   -12.658   -12.835    -0.177     (0)  
   Zn(OH)2         8.970e-14   8.970e-14   -13.047   -13.047     0.000     (0)  
   Zn(OH)3-        3.214e-19   2.855e-19   -18.493   -18.544    -0.051     (0)  
   Zn(OH)4-2       1.160e-26   7.219e-27   -25.936   -26.142    -0.206     (0)  

------------------------------Saturation indices-------------------------------

  Phase               SI** log IAP   log K(298 K,   1 atm)

  Halite           -5.69     -4.09    1.60  NaCl
  O2(g)           -47.89     35.20   83.09  O2
  Zincite          -6.59      4.75   11.33  ZnO
  Zn(OH)2          -7.45      4.75   12.20  Zn(OH)2
  Zn(OH)2(am)      -7.73      4.75   12.47  Zn(OH)2
  Zn(OH)2(beta)    -7.01      4.75   11.75  Zn(OH)2
  Zn(OH)2(epsilon)  -6.79      4.75   11.53  Zn(OH)2
  Zn(OH)2(gamma)   -6.99      4.75   11.73  Zn(OH)2
  Zn2(OH)3Cl      -12.54      2.65   15.19  Zn2(OH)3Cl
  Zn5(OH)8Cl2     -28.46     10.04   38.50  Zn5(OH)8Cl2
  ZnCl2           -15.99     -8.94    7.05  ZnCl2
  Znmetal         -38.64    -12.85   25.79  Zn
  ZnO(active)      -6.44      4.75   11.19  ZnO

**For a gas, SI = log10(fugacity). Fugacity = pressure * phi / 1 atm.
  For ideal gases, phi = 1.

------------------
End of simulation.
------------------

-------------------------------------
Reading input data for simulation 13.
-------------------------------------

	SOLUTION 11
	pH		5.0
	Cl		0.01		mol/kgw
	Na		0.01		mol/kgw
	Zn	0.200 	mmol/kgw
	Nta  0.200 	mmol/kgw
	END
-------------------------------------------
Beginning of initial solution calculations.
-------------------------------------------

Initial solution 11.	

-----------------------------Solution composition------------------------------

	Elements           Molality       Moles

	Cl                1.000e-02   1.000e-02
	Na                1.000e-02   1.000e-02
	Nta               2.000e-04   2.000e-04
	Zn                2.000e-04   2.000e-04

----------------------------Description of solution----------------------------

                                       pH  =   5.000    
                                       pe  =   4.000    
                        Activity of water  =   1.000
                 Ionic strength (mol/kgw)  =   1.017e-02
                       Mass of water (kg)  =   1.000e+00
                 Total alkalinity (eq/kg)  =   1.715e-04
                         Temperature (°C)  =  25.00
                  Electrical balance (eq)  =  -1.715e-04
 Percent error, 100*(Cat-|An|)/(Cat+|An|)  =  -0.85
                               Iterations  =   7
                                  Total H  = 1.110137e+02
                                  Total O  = 5.550683e+01

----------------------------Distribution of species----------------------------

                                               Log       Log       Log    mole V
   Species          Molality    Activity  Molality  Activity     Gamma   cm³/mol

   H+              1.110e-05   1.000e-05    -4.955    -5.000    -0.045      0.00
   OH-             1.119e-09   1.007e-09    -8.951    -8.997    -0.046     (0)  
   H2O             5.551e+01   9.997e-01     1.744    -0.000     0.000     18.07
Cl            1.000e-02
   Cl-             1.000e-02   9.012e-03    -2.000    -2.045    -0.045     (0)  
   ZnCl+           2.829e-07   2.548e-07    -6.548    -6.594    -0.045     (0)  
   ZnCl2           3.640e-09   3.640e-09    -8.439    -8.439     0.000     (0)  
   ZnOHCl          3.358e-10   3.358e-10    -9.474    -9.474     0.000     (0)  
   ZnCl3-          2.893e-11   2.606e-11   -10.539   -10.584    -0.045     (0)  
   ZnCl4-2         1.763e-13   1.174e-13   -12.754   -12.930    -0.176     (0)  
H(0)          1.413e-21
   H2              7.063e-22   7.079e-22   -21.151   -21.150     0.001     (0)  
Na            1.000e-02
   Na+             1.000e-02   9.012e-03    -2.000    -2.045    -0.045     (0)  
Nta           2.000e-04
   Zn(Nta)-        1.826e-04   1.646e-04    -3.738    -3.784    -0.045     (0)  
   H(Nta)-2        1.725e-05   1.074e-05    -4.763    -4.969    -0.206     (0)  
   H2(Nta)-        1.058e-07   9.397e-08    -6.976    -7.027    -0.051     (0)  
   ZnOH(Nta)-2     1.219e-09   8.041e-10    -8.914    -9.095    -0.181     (0)  
   Nta-3           1.444e-10   5.662e-11    -9.841   -10.247    -0.406     (0)  
   H3(Nta)         9.397e-11   9.397e-11   -10.027   -10.027     0.000     (0)  
   Zn(Nta)2-4      7.780e-11   1.474e-11   -10.109   -10.832    -0.723     (0)  
   H4(Nta)+        1.058e-14   9.397e-15   -13.976   -14.027    -0.051     (0)  
O(0)          0.000e+00
   O2              0.000e+00   0.000e+00   -49.996   -49.995     0.001     (0)  
Zn            2.000e-04
   Zn(Nta)-        1.826e-04   1.646e-04    -3.738    -3.784    -0.045     (0)  
   Zn+2            1.706e-05   1.126e-05    -4.768    -4.949    -0.181     (0)  
   ZnCl+           2.829e-07   2.548e-07    -6.548    -6.594    -0.045     (0)  
   ZnCl2           3.640e-09   3.640e-09    -8.439    -8.439     0.000     (0)  
   ZnOH+           1.276e-09   1.133e-09    -8.894    -8.946    -0.051     (0)  
   ZnOH(Nta)-2     1.219e-09   8.041e-10    -8.914    -9.095    -0.181     (0)  
   ZnOHCl          3.358e-10   3.358e-10    -9.474    -9.474     0.000     (0)  
   Zn(Nta)2-4      7.780e-11   1.474e-11   -10.109   -10.832    -0.723     (0)  
   ZnCl3-          2.893e-11   2.606e-11   -10.539   -10.584    -0.045     (0)  
   Zn(OH)2         1.808e-13   1.808e-13   -12.743   -12.743     0.000     (0)  
   ZnCl4-2         1.763e-13   1.174e-13   -12.754   -12.930    -0.176     (0)  
   Zn(OH)3-        1.027e-18   9.120e-19   -17.989   -18.040    -0.051     (0)  
   Zn(OH)4-2       5.869e-26   3.655e-26   -25.231   -25.437    -0.206     (0)  

------------------------------Saturation indices-------------------------------

  Phase               SI** log IAP   log K(298 K,   1 atm)

  Halite           -5.69     -4.09    1.60  NaCl
  O2(g)           -47.09     36.00   83.09  O2
  Zincite          -6.28      5.05   11.33  ZnO
  Zn(OH)2          -7.15      5.05   12.20  Zn(OH)2
  Zn(OH)2(am)      -7.42      5.05   12.47  Zn(OH)2
  Zn(OH)2(beta)    -6.70      5.05   11.75  Zn(OH)2
  Zn(OH)2(epsilon)  -6.48      5.05   11.53  Zn(OH)2
  Zn(OH)2(gamma)   -6.68      5.05   11.73  Zn(OH)2
  Zn2(OH)3Cl      -12.13      3.06   15.19  Zn2(OH)3Cl
  Zn5(OH)8Cl2     -27.33     11.17   38.50  Zn5(OH)8Cl2
  ZnCl2           -16.09     -9.04    7.05  ZnCl2
  Znmetal         -38.74    -12.95   25.79  Zn
  ZnO(active)      -6.14      5.05   11.19  ZnO

**For a gas, SI = log10(fugacity). Fugacity = pressure * phi / 1 atm.
  For ideal gases, phi = 1.

------------------
End of simulation.
------------------

-------------------------------------
Reading input data for simulation 14.
-------------------------------------

	SOLUTION 12
	pH		5.2
	Cl		0.01		mol/kgw
	Na		0.01		mol/kgw
	Zn	0.200 	mmol/kgw
	Nta  0.200 	mmol/kgw
	END
-------------------------------------------
Beginning of initial solution calculations.
-------------------------------------------

Initial solution 12.	

-----------------------------Solution composition------------------------------

	Elements           Molality       Moles

	Cl                1.000e-02   1.000e-02
	Na                1.000e-02   1.000e-02
	Nta               2.000e-04   2.000e-04
	Zn                2.000e-04   2.000e-04

----------------------------Description of solution----------------------------

                                       pH  =   5.200    
                                       pe  =   4.000    
                        Activity of water  =   1.000
                 Ionic strength (mol/kgw)  =   1.015e-02
                       Mass of water (kg)  =   1.000e+00
                 Total alkalinity (eq/kg)  =   1.791e-04
                         Temperature (°C)  =  25.00
                  Electrical balance (eq)  =  -1.791e-04
 Percent error, 100*(Cat-|An|)/(Cat+|An|)  =  -0.88
                               Iterations  =   7
                                  Total H  = 1.110137e+02
                                  Total O  = 5.550683e+01

----------------------------Distribution of species----------------------------

                                               Log       Log       Log    mole V
   Species          Molality    Activity  Molality  Activity     Gamma   cm³/mol

   H+              7.001e-06   6.310e-06    -5.155    -5.200    -0.045      0.00
   OH-             1.774e-09   1.595e-09    -8.751    -8.797    -0.046     (0)  
   H2O             5.551e+01   9.997e-01     1.744    -0.000     0.000     18.07
Cl            1.000e-02
   Cl-             1.000e-02   9.013e-03    -2.000    -2.045    -0.045     (0)  
   ZnCl+           2.266e-07   2.041e-07    -6.645    -6.690    -0.045     (0)  
   ZnCl2           2.916e-09   2.916e-09    -8.535    -8.535     0.000     (0)  
   ZnOHCl          4.263e-10   4.263e-10    -9.370    -9.370     0.000     (0)  
   ZnCl3-          2.317e-11   2.087e-11   -10.635   -10.680    -0.045     (0)  
   ZnCl4-2         1.412e-13   9.407e-14   -12.850   -13.027    -0.176     (0)  
H(0)          5.624e-22
   H2              2.812e-22   2.818e-22   -21.551   -21.550     0.001     (0)  
Na            1.000e-02
   Na+             1.000e-02   9.013e-03    -2.000    -2.045    -0.045     (0)  
Nta           2.000e-04
   Zn(Nta)-        1.861e-04   1.677e-04    -3.730    -3.775    -0.045     (0)  
   H(Nta)-2        1.384e-05   8.622e-06    -4.859    -5.064    -0.206     (0)  
   H2(Nta)-        5.358e-08   4.760e-08    -7.271    -7.322    -0.051     (0)  
   ZnOH(Nta)-2     1.968e-09   1.299e-09    -8.706    -8.887    -0.181     (0)  
   Nta-3           1.836e-10   7.205e-11    -9.736   -10.142    -0.406     (0)  
   Zn(Nta)2-4      1.008e-10   1.911e-11    -9.997   -10.719    -0.722     (0)  
   H3(Nta)         3.003e-11   3.003e-11   -10.522   -10.522     0.000     (0)  
   H4(Nta)+        2.133e-15   1.895e-15   -14.671   -14.722    -0.051     (0)  
O(0)          0.000e+00
   O2              0.000e+00   0.000e+00   -49.196   -49.195     0.001     (0)  
Zn            2.000e-04
   Zn(Nta)-        1.861e-04   1.677e-04    -3.730    -3.775    -0.045     (0)  
   Zn+2            1.366e-05   9.016e-06    -4.864    -5.045    -0.181     (0)  
   ZnCl+           2.266e-07   2.041e-07    -6.645    -6.690    -0.045     (0)  
   ZnCl2           2.916e-09   2.916e-09    -8.535    -8.535     0.000     (0)  
   ZnOH(Nta)-2     1.968e-09   1.299e-09    -8.706    -8.887    -0.181     (0)  
   ZnOH+           1.619e-09   1.438e-09    -8.791    -8.842    -0.051     (0)  
   ZnOHCl          4.263e-10   4.263e-10    -9.370    -9.370     0.000     (0)  
   Zn(Nta)2-4      1.008e-10   1.911e-11    -9.997   -10.719    -0.722     (0)  
   ZnCl3-          2.317e-11   2.087e-11   -10.635   -10.680    -0.045     (0)  
   Zn(OH)2         3.637e-13   3.637e-13   -12.439   -12.439     0.000     (0)  
   ZnCl4-2         1.412e-13   9.407e-14   -12.850   -13.027    -0.176     (0)  
   Zn(OH)3-        3.273e-18   2.908e-18   -17.485   -17.536    -0.051     (0)  
   Zn(OH)4-2       2.965e-25   1.847e-25   -24.528   -24.734    -0.206     (0)  

------------------------------Saturation indices-------------------------------

  Phase               SI** log IAP   log K(298 K,   1 atm)

  Halite           -5.69     -4.09    1.60  NaCl
  O2(g)           -46.29     36.80   83.09  O2
  Zincite          -5.98      5.35   11.33  ZnO
  Zn(OH)2          -6.85      5.35   12.20  Zn(OH)2
  Zn(OH)2(am)      -7.12      5.35   12.47  Zn(OH)2
  Zn(OH)2(beta)    -6.40      5.35   11.75  Zn(OH)2
  Zn(OH)2(epsilon)  -6.18      5.35   11.53  Zn(OH)2
  Zn(OH)2(gamma)   -6.38      5.35   11.73  Zn(OH)2
  Zn2(OH)3Cl      -11.73      3.46   15.19  Zn2(OH)3Cl
  Zn5(OH)8Cl2     -26.22     12.28   38.50  Zn5(OH)8Cl2
  ZnCl2           -16.19     -9.14    7.05  ZnCl2
  Znmetal         -38.83    -13.04   25.79  Zn
  ZnO(active)      -5.83      5.35   11.19  ZnO

**For a gas, SI = log10(fugacity). Fugacity = pressure * phi / 1 atm.
  For ideal gases, phi = 1.

------------------
End of simulation.
------------------

-------------------------------------
Reading input data for simulation 15.
-------------------------------------

	SOLUTION 13
	pH		5.4
	Cl		0.01		mol/kgw
	Na		0.01		mol/kgw
	Zn	0.200 	mmol/kgw
	Nta  0.200 	mmol/kgw
	END
-------------------------------------------
Beginning of initial solution calculations.
-------------------------------------------

Initial solution 13.	

-----------------------------Solution composition------------------------------

	Elements           Molality       Moles

	Cl                1.000e-02   1.000e-02
	Na                1.000e-02   1.000e-02
	Nta               2.000e-04   2.000e-04
	Zn                2.000e-04   2.000e-04

----------------------------Description of solution----------------------------

                                       pH  =   5.400    
                                       pe  =   4.000    
                        Activity of water  =   1.000
                 Ionic strength (mol/kgw)  =   1.014e-02
                       Mass of water (kg)  =   1.000e+00
                 Total alkalinity (eq/kg)  =   1.845e-04
                         Temperature (°C)  =  25.00
                  Electrical balance (eq)  =  -1.845e-04
 Percent error, 100*(Cat-|An|)/(Cat+|An|)  =  -0.91
                               Iterations  =   7
                                  Total H  = 1.110137e+02
                                  Total O  = 5.550683e+01

----------------------------Distribution of species----------------------------

                                               Log       Log       Log    mole V
   Species          Molality    Activity  Molality  Activity     Gamma   cm³/mol

   H+              4.417e-06   3.981e-06    -5.355    -5.400    -0.045      0.00
   OH-             2.811e-09   2.528e-09    -8.551    -8.597    -0.046     (0)  
   H2O             5.551e+01   9.997e-01     1.744    -0.000     0.000     18.07
Cl            1.000e-02
   Cl-             1.000e-02   9.013e-03    -2.000    -2.045    -0.045     (0)  
   ZnCl+           1.812e-07   1.632e-07    -6.742    -6.787    -0.045     (0)  
   ZnCl2           2.332e-09   2.332e-09    -8.632    -8.632     0.000     (0)  
   ZnOHCl          5.403e-10   5.403e-10    -9.267    -9.267     0.000     (0)  
   ZnCl3-          1.853e-11   1.669e-11   -10.732   -10.777    -0.045     (0)  
   ZnCl4-2         1.129e-13   7.524e-14   -12.947   -13.124    -0.176     (0)  
H(0)          2.239e-22
   H2              1.119e-22   1.122e-22   -21.951   -21.950     0.001     (0)  
Na            1.000e-02
   Na+             1.000e-02   9.013e-03    -2.000    -2.045    -0.045     (0)  
Nta           2.000e-04
   Zn(Nta)-        1.889e-04   1.703e-04    -3.724    -3.769    -0.045     (0)  
   H(Nta)-2        1.108e-05   6.905e-06    -4.955    -5.161    -0.205     (0)  
   H2(Nta)-        2.707e-08   2.405e-08    -7.567    -7.619    -0.051     (0)  
   ZnOH(Nta)-2     3.165e-09   2.089e-09    -8.500    -8.680    -0.180     (0)  
   Nta-3           2.329e-10   9.145e-11    -9.633   -10.039    -0.406     (0)  
   Zn(Nta)2-4      1.297e-10   2.462e-11    -9.887   -10.609    -0.722     (0)  
   H3(Nta)         9.576e-12   9.576e-12   -11.019   -11.019     0.000     (0)  
   H4(Nta)+        4.291e-16   3.812e-16   -15.367   -15.419    -0.051     (0)  
O(0)          0.000e+00
   O2              0.000e+00   0.000e+00   -48.396   -48.395     0.001     (0)  
Zn            2.000e-04
   Zn(Nta)-        1.889e-04   1.703e-04    -3.724    -3.769    -0.045     (0)  
   Zn+2            1.092e-05   7.210e-06    -4.962    -5.142    -0.180     (0)  
   ZnCl+           1.812e-07   1.632e-07    -6.742    -6.787    -0.045     (0)  
   ZnOH(Nta)-2     3.165e-09   2.089e-09    -8.500    -8.680    -0.180     (0)  
   ZnCl2           2.332e-09   2.332e-09    -8.632    -8.632     0.000     (0)  
   ZnOH+           2.052e-09   1.823e-09    -8.688    -8.739    -0.051     (0)  
   ZnOHCl          5.403e-10   5.403e-10    -9.267    -9.267     0.000     (0)  
   Zn(Nta)2-4      1.297e-10   2.462e-11    -9.887   -10.609    -0.722     (0)  
   ZnCl3-          1.853e-11   1.669e-11   -10.732   -10.777    -0.045     (0)  
   Zn(OH)2         7.305e-13   7.305e-13   -12.136   -12.136     0.000     (0)  
   ZnCl4-2         1.129e-13   7.524e-14   -12.947   -13.124    -0.176     (0)  
   Zn(OH)3-        1.042e-17   9.257e-18   -16.982   -17.034    -0.051     (0)  
   Zn(OH)4-2       1.495e-24   9.318e-25   -23.825   -24.031    -0.205     (0)  

------------------------------Saturation indices-------------------------------

  Phase               SI** log IAP   log K(298 K,   1 atm)

  Halite           -5.69     -4.09    1.60  NaCl
  O2(g)           -45.49     37.60   83.09  O2
  Zincite          -5.68      5.66   11.33  ZnO
  Zn(OH)2          -6.54      5.66   12.20  Zn(OH)2
  Zn(OH)2(am)      -6.82      5.66   12.47  Zn(OH)2
  Zn(OH)2(beta)    -6.10      5.66   11.75  Zn(OH)2
  Zn(OH)2(epsilon)  -5.88      5.66   11.53  Zn(OH)2
  Zn(OH)2(gamma)   -6.08      5.66   11.73  Zn(OH)2
  Zn2(OH)3Cl      -11.32      3.87   15.19  Zn2(OH)3Cl
  Zn5(OH)8Cl2     -25.10     13.40   38.50  Zn5(OH)8Cl2
  ZnCl2           -16.28     -9.23    7.05  ZnCl2
  Znmetal         -38.93    -13.14   25.79  Zn
  ZnO(active)      -5.53      5.66   11.19  ZnO

**For a gas, SI = log10(fugacity). Fugacity = pressure * phi / 1 atm.
  For ideal gases, phi = 1.

------------------
End of simulation.
------------------

-------------------------------------
Reading input data for simulation 16.
-------------------------------------

	SOLUTION 14
	pH		5.6
	Cl		0.01		mol/kgw
	Na		0.01		mol/kgw
	Zn	0.200 	mmol/kgw
	Nta  0.200 	mmol/kgw
	END
-------------------------------------------
Beginning of initial solution calculations.
-------------------------------------------

Initial solution 14.	

-----------------------------Solution composition------------------------------

	Elements           Molality       Moles

	Cl                1.000e-02   1.000e-02
	Na                1.000e-02   1.000e-02
	Nta               2.000e-04   2.000e-04
	Zn                2.000e-04   2.000e-04

----------------------------Description of solution----------------------------

                                       pH  =   5.600    
                                       pe  =   4.000    
                        Activity of water  =   1.000
                 Ionic strength (mol/kgw)  =   1.013e-02
                       Mass of water (kg)  =   1.000e+00
                 Total alkalinity (eq/kg)  =   1.883e-04
                         Temperature (°C)  =  25.00
                  Electrical balance (eq)  =  -1.883e-04
 Percent error, 100*(Cat-|An|)/(Cat+|An|)  =  -0.93
                               Iterations  =   6
                                  Total H  = 1.110137e+02
                                  Total O  = 5.550683e+01

----------------------------Distribution of species----------------------------

                                               Log       Log       Log    mole V
   Species          Molality    Activity  Molality  Activity     Gamma   cm³/mol

   H+              2.787e-06   2.512e-06    -5.555    -5.600    -0.045      0.00
   OH-             4.455e-09   4.007e-09    -8.351    -8.397    -0.046     (0)  
   H2O             5.551e+01   9.997e-01     1.744    -0.000     0.000     18.07
Cl            1.000e-02
   Cl-             1.000e-02   9.014e-03    -2.000    -2.045    -0.045     (0)  
   ZnCl+           1.447e-07   1.304e-07    -6.840    -6.885    -0.045     (0)  
   ZnCl2           1.862e-09   1.862e-09    -8.730    -8.730     0.000     (0)  
   ZnOHCl          6.839e-10   6.839e-10    -9.165    -9.165     0.000     (0)  
   ZnCl3-          1.480e-11   1.333e-11   -10.830   -10.875    -0.045     (0)  
   ZnCl4-2         9.017e-14   6.010e-14   -13.045   -13.221    -0.176     (0)  
H(0)          8.913e-23
   H2              4.456e-23   4.467e-23   -22.351   -22.350     0.001     (0)  
Na            1.000e-02
   Na+             1.000e-02   9.014e-03    -2.000    -2.045    -0.045     (0)  
Nta           2.000e-04
   Zn(Nta)-        1.911e-04   1.723e-04    -3.719    -3.764    -0.045     (0)  
   H(Nta)-2        8.858e-06   5.520e-06    -5.053    -5.258    -0.205     (0)  
   H2(Nta)-        1.366e-08   1.213e-08    -7.865    -7.916    -0.051     (0)  
   ZnOH(Nta)-2     5.075e-09   3.350e-09    -8.295    -8.475    -0.180     (0)  
   Nta-3           2.950e-10   1.159e-10    -9.530    -9.936    -0.406     (0)  
   Zn(Nta)2-4      1.662e-10   3.156e-11    -9.779   -10.501    -0.721     (0)  
   H3(Nta)         3.048e-12   3.048e-12   -11.516   -11.516     0.000     (0)  
   H4(Nta)+        8.616e-17   7.655e-17   -16.065   -16.116    -0.051     (0)  
O(0)          0.000e+00
   O2              0.000e+00   0.000e+00   -47.596   -47.595     0.001     (0)  
Zn            2.000e-04
   Zn(Nta)-        1.911e-04   1.723e-04    -3.719    -3.764    -0.045     (0)  
   Zn+2            8.722e-06   5.758e-06    -5.059    -5.240    -0.180     (0)  
   ZnCl+           1.447e-07   1.304e-07    -6.840    -6.885    -0.045     (0)  
   ZnOH(Nta)-2     5.075e-09   3.350e-09    -8.295    -8.475    -0.180     (0)  
   ZnOH+           2.597e-09   2.307e-09    -8.586    -8.637    -0.051     (0)  
   ZnCl2           1.862e-09   1.862e-09    -8.730    -8.730     0.000     (0)  
   ZnOHCl          6.839e-10   6.839e-10    -9.165    -9.165     0.000     (0)  
   Zn(Nta)2-4      1.662e-10   3.156e-11    -9.779   -10.501    -0.721     (0)  
   ZnCl3-          1.480e-11   1.333e-11   -10.830   -10.875    -0.045     (0)  
   Zn(OH)2         1.465e-12   1.465e-12   -11.834   -11.834     0.000     (0)  
   ZnCl4-2         9.017e-14   6.010e-14   -13.045   -13.221    -0.176     (0)  
   Zn(OH)3-        3.312e-17   2.943e-17   -16.480   -16.531    -0.051     (0)  
   Zn(OH)4-2       7.534e-24   4.695e-24   -23.123   -23.328    -0.205     (0)  

------------------------------Saturation indices-------------------------------

  Phase               SI** log IAP   log K(298 K,   1 atm)

  Halite           -5.69     -4.09    1.60  NaCl
  O2(g)           -44.69     38.40   83.09  O2
  Zincite          -5.37      5.96   11.33  ZnO
  Zn(OH)2          -6.24      5.96   12.20  Zn(OH)2
  Zn(OH)2(am)      -6.51      5.96   12.47  Zn(OH)2
  Zn(OH)2(beta)    -5.79      5.96   11.75  Zn(OH)2
  Zn(OH)2(epsilon)  -5.57      5.96   11.53  Zn(OH)2
  Zn(OH)2(gamma)   -5.77      5.96   11.73  Zn(OH)2
  Zn2(OH)3Cl      -10.92      4.27   15.19  Zn2(OH)3Cl
  Zn5(OH)8Cl2     -23.99     14.51   38.50  Zn5(OH)8Cl2
  ZnCl2           -16.38     -9.33    7.05  ZnCl2
  Znmetal         -39.03    -13.24   25.79  Zn
  ZnO(active)      -5.23      5.96   11.19  ZnO

**For a gas, SI = log10(fugacity). Fugacity = pressure * phi / 1 atm.
  For ideal gases, phi = 1.

------------------
End of simulation.
------------------

-------------------------------------
Reading input data for simulation 17.
-------------------------------------

	SOLUTION 15
	pH		5.8
	Cl		0.01		mol/kgw
	Na		0.01		mol/kgw
	Zn	0.200 	mmol/kgw
	Nta  0.200 	mmol/kgw
	END
-------------------------------------------
Beginning of initial solution calculations.
-------------------------------------------

Initial solution 15.	

-----------------------------Solution composition------------------------------

	Elements           Molality       Moles

	Cl                1.000e-02   1.000e-02
	Na                1.000e-02   1.000e-02
	Nta               2.000e-04   2.000e-04
	Zn                2.000e-04   2.000e-04

----------------------------Description of solution----------------------------

                                       pH  =   5.800    
                                       pe  =   4.000    
                        Activity of water  =   1.000
                 Ionic strength (mol/kgw)  =   1.013e-02
                       Mass of water (kg)  =   1.000e+00
                 Total alkalinity (eq/kg)  =   1.912e-04
                         Temperature (°C)  =  25.00
                  Electrical balance (eq)  =  -1.912e-04
 Percent error, 100*(Cat-|An|)/(Cat+|An|)  =  -0.95
                               Iterations  =   6
                                  Total H  = 1.110137e+02
                                  Total O  = 5.550683e+01

----------------------------Distribution of species----------------------------

                                               Log       Log       Log    mole V
   Species          Molality    Activity  Molality  Activity     Gamma   cm³/mol

   H+              1.758e-06   1.585e-06    -5.755    -5.800    -0.045      0.00
   OH-             7.061e-09   6.351e-09    -8.151    -8.197    -0.046     (0)  
   H2O             5.551e+01   9.997e-01     1.744    -0.000     0.000     18.07
Cl            1.000e-02
   Cl-             1.000e-02   9.014e-03    -2.000    -2.045    -0.045     (0)  
   ZnCl+           1.154e-07   1.040e-07    -6.938    -6.983    -0.045     (0)  
   ZnCl2           1.486e-09   1.486e-09    -8.828    -8.828     0.000     (0)  
   ZnOHCl          8.647e-10   8.647e-10    -9.063    -9.063     0.000     (0)  
   ZnCl3-          1.181e-11   1.064e-11   -10.928   -10.973    -0.045     (0)  
   ZnCl4-2         7.193e-14   4.795e-14   -13.143   -13.319    -0.176     (0)  
H(0)          3.548e-23
   H2              1.774e-23   1.778e-23   -22.751   -22.750     0.001     (0)  
Na            1.000e-02
   Na+             1.000e-02   9.014e-03    -2.000    -2.045    -0.045     (0)  
Nta           2.000e-04
   Zn(Nta)-        1.929e-04   1.739e-04    -3.715    -3.760    -0.045     (0)  
[...]
   ZnOHCl          1.788e-08   1.788e-08    -7.748    -7.748     0.000     (0)  
   ZnCl+           5.998e-10   5.402e-10    -9.222    -9.267    -0.045     (0)  
   ZnCl2           7.717e-12   7.717e-12   -11.113   -11.113     0.000     (0)  
   ZnCl3-          6.133e-14   5.525e-14   -13.212   -13.258    -0.045     (0)  
   ZnCl4-2         3.737e-16   2.490e-16   -15.427   -15.604    -0.176     (0)  
H(0)          2.239e-30
   H2              1.119e-30   1.122e-30   -29.951   -29.950     0.001     (0)  
Na            1.000e-02
   Na+             1.000e-02   9.013e-03    -2.000    -2.045    -0.045     (0)  
Nta           2.000e-04
   Zn(Nta)-        1.709e-04   1.540e-04    -3.767    -3.812    -0.045     (0)  
   ZnOH(Nta)-2     2.865e-05   1.890e-05    -4.543    -4.723    -0.181     (0)  
   H(Nta)-2        3.031e-07   1.888e-07    -6.518    -6.724    -0.206     (0)  
   Nta-3           6.371e-08   2.500e-08    -7.196    -7.602    -0.406     (0)  
   Zn(Nta)2-4      3.213e-08   6.089e-09    -7.493    -8.215    -0.722     (0)  
   H2(Nta)-        7.402e-14   6.575e-14   -13.131   -13.182    -0.051     (0)  
   H3(Nta)         2.618e-21   2.618e-21   -20.582   -20.582     0.000     (0)  
   H4(Nta)+        1.173e-29   1.042e-29   -28.931   -28.982    -0.051     (0)  
O(0)          8.029e-33
   O2              4.014e-33   4.024e-33   -32.396   -32.395     0.001     (0)  
Zn            2.000e-04
   Zn(Nta)-        1.709e-04   1.540e-04    -3.767    -3.812    -0.045     (0)  
   ZnOH(Nta)-2     2.865e-05   1.890e-05    -4.543    -4.723    -0.181     (0)  
   Zn(OH)2         2.418e-07   2.418e-07    -6.617    -6.617     0.000     (0)  
   ZnOH+           6.792e-08   6.034e-08    -7.168    -7.219    -0.051     (0)  
   Zn+2            3.617e-08   2.386e-08    -7.442    -7.622    -0.181     (0)  
   Zn(OH)3-        3.449e-08   3.064e-08    -7.462    -7.514    -0.051     (0)  
   Zn(Nta)2-4      3.213e-08   6.089e-09    -7.493    -8.215    -0.722     (0)  
   ZnOHCl          1.788e-08   1.788e-08    -7.748    -7.748     0.000     (0)  
   ZnCl+           5.998e-10   5.402e-10    -9.222    -9.267    -0.045     (0)  
   Zn(OH)4-2       4.952e-11   3.084e-11   -10.305   -10.511    -0.206     (0)  
   ZnCl2           7.717e-12   7.717e-12   -11.113   -11.113     0.000     (0)  
   ZnCl3-          6.133e-14   5.525e-14   -13.212   -13.258    -0.045     (0)  
   ZnCl4-2         3.737e-16   2.490e-16   -15.427   -15.604    -0.176     (0)  

------------------------------Saturation indices-------------------------------

  Phase               SI** log IAP   log K(298 K,   1 atm)

  Halite           -5.69     -4.09    1.60  NaCl
  O2(g)           -29.49     53.60   83.09  O2
  Zincite          -0.16     11.18   11.33  ZnO
  Zn(OH)2          -1.02     11.18   12.20  Zn(OH)2
  Zn(OH)2(am)      -1.30     11.18   12.47  Zn(OH)2
  Zn(OH)2(beta)    -0.58     11.18   11.75  Zn(OH)2
  Zn(OH)2(epsilon)  -0.36     11.18   11.53  Zn(OH)2
  Zn(OH)2(gamma)   -0.56     11.18   11.73  Zn(OH)2
  Zn2(OH)3Cl       -4.28     10.91   15.19  Zn2(OH)3Cl
  Zn5(OH)8Cl2      -5.50     33.00   38.50  Zn5(OH)8Cl2
  ZnCl2           -18.76    -11.71    7.05  ZnCl2
  Znmetal         -41.41    -15.62   25.79  Zn
  ZnO(active)      -0.01     11.18   11.19  ZnO

**For a gas, SI = log10(fugacity). Fugacity = pressure * phi / 1 atm.
  For ideal gases, phi = 1.

------------------
End of simulation.
------------------

-------------------------------------
Reading input data for simulation 36.
-------------------------------------

	SOLUTION 34
	pH		9.6
	Cl		0.01		mol/kgw
	Na		0.01		mol/kgw
	Zn	0.200 	mmol/kgw
	Nta  0.200 	mmol/kgw
	END
-------------------------------------------
Beginning of initial solution calculations.
-------------------------------------------

Initial solution 34.	

-----------------------------Solution composition------------------------------

	Elements           Molality       Moles

	Cl                1.000e-02   1.000e-02
	Na                1.000e-02   1.000e-02
	Nta               2.000e-04   2.000e-04
	Zn                2.000e-04   2.000e-04

----------------------------Description of solution----------------------------

                                       pH  =   9.600    
                                       pe  =   4.000    
                        Activity of water  =   1.000
                 Ionic strength (mol/kgw)  =   1.019e-02
                       Mass of water (kg)  =   1.000e+00
                 Total alkalinity (eq/kg)  =   2.871e-04
                         Temperature (°C)  =  25.00
                  Electrical balance (eq)  =  -2.871e-04
 Percent error, 100*(Cat-|An|)/(Cat+|An|)  =  -1.41
                               Iterations  =   7
                                  Total H  = 1.110138e+02
                                  Total O  = 5.550692e+01

----------------------------Distribution of species----------------------------

                                               Log       Log       Log    mole V
   Species          Molality    Activity  Molality  Activity     Gamma   cm³/mol

   OH-             4.456e-05   4.007e-05    -4.351    -4.397    -0.046     (0)  
   H+              2.787e-10   2.512e-10    -9.555    -9.600    -0.045      0.00
   H2O             5.551e+01   9.997e-01     1.744    -0.000     0.000     18.07
Cl            1.000e-02
   Cl-             1.000e-02   9.012e-03    -2.000    -2.045    -0.045     (0)  
   ZnOHCl          1.516e-08   1.516e-08    -7.819    -7.819     0.000     (0)  
   ZnCl+           3.208e-10   2.889e-10    -9.494    -9.539    -0.045     (0)  
   ZnCl2           4.126e-12   4.126e-12   -11.384   -11.384     0.000     (0)  
   ZnCl3-          3.280e-14   2.954e-14   -13.484   -13.530    -0.045     (0)  
   ZnCl4-2         1.999e-16   1.331e-16   -15.699   -15.876    -0.177     (0)  
H(0)          8.913e-31
   H2              4.456e-31   4.467e-31   -30.351   -30.350     0.001     (0)  
Na            1.000e-02
   Na+             1.000e-02   9.012e-03    -2.000    -2.045    -0.045     (0)  
Nta           2.000e-04
   Zn(Nta)-        1.576e-04   1.420e-04    -3.802    -3.848    -0.045     (0)  
   ZnOH(Nta)-2     4.187e-05   2.762e-05    -4.378    -4.559    -0.181     (0)  
   H(Nta)-2        3.298e-07   2.053e-07    -6.482    -6.688    -0.206     (0)  
   Nta-3           1.099e-07   4.309e-08    -6.959    -7.366    -0.407     (0)  
   Zn(Nta)2-4      5.115e-08   9.675e-09    -7.291    -8.014    -0.723     (0)  
   H2(Nta)-        5.079e-14   4.512e-14   -13.294   -13.346    -0.051     (0)  
   H3(Nta)         1.133e-21   1.133e-21   -20.946   -20.946     0.000     (0)  
   H4(Nta)+        3.205e-30   2.847e-30   -29.494   -29.546    -0.051     (0)  
O(0)          5.066e-32
   O2              2.533e-32   2.539e-32   -31.596   -31.595     0.001     (0)  
Zn            2.000e-04
   Zn(Nta)-        1.576e-04   1.420e-04    -3.802    -3.848    -0.045     (0)  
   ZnOH(Nta)-2     4.187e-05   2.762e-05    -4.378    -4.559    -0.181     (0)  
   Zn(OH)2         3.248e-07   3.248e-07    -6.488    -6.488     0.000     (0)  
   Zn(OH)3-        7.345e-08   6.524e-08    -7.134    -7.185    -0.051     (0)  
   ZnOH+           5.758e-08   5.115e-08    -7.240    -7.291    -0.051     (0)  
   Zn(Nta)2-4      5.115e-08   9.675e-09    -7.291    -8.014    -0.723     (0)  
   Zn+2            1.935e-08   1.276e-08    -7.713    -7.894    -0.181     (0)  
   ZnOHCl          1.516e-08   1.516e-08    -7.819    -7.819     0.000     (0)  
   ZnCl+           3.208e-10   2.889e-10    -9.494    -9.539    -0.045     (0)  
   Zn(OH)4-2       1.672e-10   1.041e-10    -9.777    -9.983    -0.206     (0)  
   ZnCl2           4.126e-12   4.126e-12   -11.384   -11.384     0.000     (0)  
   ZnCl3-          3.280e-14   2.954e-14   -13.484   -13.530    -0.045     (0)  
   ZnCl4-2         1.999e-16   1.331e-16   -15.699   -15.876    -0.177     (0)  

------------------------------Saturation indices-------------------------------

  Phase               SI** log IAP   log K(298 K,   1 atm)

  Halite           -5.69     -4.09    1.60  NaCl
  O2(g)           -28.69     54.40   83.09  O2
  Zincite          -0.03     11.31   11.33  ZnO
  Zn(OH)2          -0.89     11.31   12.20  Zn(OH)2
  Zn(OH)2(am)      -1.17     11.31   12.47  Zn(OH)2
  Zn(OH)2(beta)    -0.45     11.31   11.75  Zn(OH)2
  Zn(OH)2(epsilon)  -0.23     11.31   11.53  Zn(OH)2
  Zn(OH)2(gamma)   -0.43     11.31   11.73  Zn(OH)2
  Zn2(OH)3Cl       -4.22     10.97   15.19  Zn2(OH)3Cl
  Zn5(OH)8Cl2      -5.26     33.24   38.50  Zn5(OH)8Cl2
  ZnCl2           -19.03    -11.98    7.05  ZnCl2
  Znmetal         -41.68    -15.89   25.79  Zn
  ZnO(active)       0.12     11.31   11.19  ZnO

**For a gas, SI = log10(fugacity). Fugacity = pressure * phi / 1 atm.
  For ideal gases, phi = 1.

------------------
End of simulation.
------------------

-------------------------------------
Reading input data for simulation 37.
-------------------------------------

	SOLUTION 35
	pH		9.8
	Cl		0.01		mol/kgw
	Na		0.01		mol/kgw
	Zn	0.200 	mmol/kgw
	Nta  0.200 	mmol/kgw
	END
-------------------------------------------
Beginning of initial solution calculations.
-------------------------------------------

Initial solution 35.	

-----------------------------Solution composition------------------------------

	Elements           Molality       Moles

	Cl                1.000e-02   1.000e-02
	Na                1.000e-02   1.000e-02
	Nta               2.000e-04   2.000e-04
	Zn                2.000e-04   2.000e-04

----------------------------Description of solution----------------------------

                                       pH  =   9.800    
                                       pe  =   4.000    
                        Activity of water  =   1.000
                 Ionic strength (mol/kgw)  =   1.023e-02
                       Mass of water (kg)  =   1.000e+00
                 Total alkalinity (eq/kg)  =   3.307e-04
                         Temperature (°C)  =  25.00
                  Electrical balance (eq)  =  -3.307e-04
 Percent error, 100*(Cat-|An|)/(Cat+|An|)  =  -1.63
                               Iterations  =   9
                                  Total H  = 1.110138e+02
                                  Total O  = 5.550696e+01

----------------------------Distribution of species----------------------------

                                               Log       Log       Log    mole V
   Species          Molality    Activity  Molality  Activity     Gamma   cm³/mol

   OH-             7.064e-05   6.351e-05    -4.151    -4.197    -0.046     (0)  
   H+              1.759e-10   1.585e-10    -9.755    -9.800    -0.045      0.00
   H2O             5.551e+01   9.997e-01     1.744    -0.000     0.000     18.07
Cl            1.000e-02
   Cl-             1.000e-02   9.010e-03    -2.000    -2.045    -0.045     (0)  
   ZnOHCl          1.225e-08   1.225e-08    -7.912    -7.912     0.000     (0)  
   ZnCl+           1.636e-10   1.473e-10    -9.786    -9.832    -0.046     (0)  
   ZnCl2           2.104e-12   2.104e-12   -11.677   -11.677     0.000     (0)  
   ZnCl3-          1.672e-14   1.506e-14   -13.777   -13.822    -0.046     (0)  
   ZnCl4-2         1.020e-16   6.785e-17   -15.992   -16.168    -0.177     (0)  
H(0)          3.548e-31
   H2              1.774e-31   1.778e-31   -30.751   -30.750     0.001     (0)  
Na            1.000e-02
   Na+             1.000e-02   9.010e-03    -2.000    -2.045    -0.045     (0)  
Nta           2.000e-04
   Zn(Nta)-        1.402e-04   1.263e-04    -3.853    -3.899    -0.045     (0)  
   ZnOH(Nta)-2     5.908e-05   3.894e-05    -4.229    -4.410    -0.181     (0)  
   H(Nta)-2        3.632e-07   2.259e-07    -6.440    -6.646    -0.206     (0)  
   Nta-3           1.920e-07   7.514e-08    -6.717    -7.124    -0.407     (0)  
   Zn(Nta)2-4      7.957e-08   1.501e-08    -7.099    -7.824    -0.724     (0)  
   H2(Nta)-        3.527e-14   3.132e-14   -13.453   -13.504    -0.052     (0)  
   H3(Nta)         4.964e-22   4.964e-22   -21.304   -21.304     0.000     (0)  
   H4(Nta)+        8.860e-31   7.868e-31   -30.053   -30.104    -0.052     (0)  
O(0)          3.196e-31
   O2              1.598e-31   1.602e-31   -30.796   -30.795     0.001     (0)  
Zn            2.000e-04
   Zn(Nta)-        1.402e-04   1.263e-04    -3.853    -3.899    -0.045     (0)  
   ZnOH(Nta)-2     5.908e-05   3.894e-05    -4.229    -4.410    -0.181     (0)  
   Zn(OH)2         4.162e-07   4.162e-07    -6.381    -6.381     0.000     (0)  
   Zn(OH)3-        1.492e-07   1.325e-07    -6.826    -6.878    -0.052     (0)  
   Zn(Nta)2-4      7.957e-08   1.501e-08    -7.099    -7.824    -0.724     (0)  
   ZnOH+           4.656e-08   4.135e-08    -7.332    -7.384    -0.052     (0)  
   ZnOHCl          1.225e-08   1.225e-08    -7.912    -7.912     0.000     (0)  
   Zn+2            9.879e-09   6.511e-09    -8.005    -8.186    -0.181     (0)  
   Zn(OH)4-2       5.387e-10   3.350e-10    -9.269    -9.475    -0.206     (0)  
   ZnCl+           1.636e-10   1.473e-10    -9.786    -9.832    -0.046     (0)  
   ZnCl2           2.104e-12   2.104e-12   -11.677   -11.677     0.000     (0)  
   ZnCl3-          1.672e-14   1.506e-14   -13.777   -13.822    -0.046     (0)  
   ZnCl4-2         1.020e-16   6.785e-17   -15.992   -16.168    -0.177     (0)  

------------------------------Saturation indices-------------------------------

  Phase               SI** log IAP   log K(298 K,   1 atm)

  Halite           -5.69     -4.09    1.60  NaCl
  O2(g)           -27.89     55.20   83.09  O2
  Zincite           0.08     11.41   11.33  ZnO
  Zn(OH)2          -0.79     11.41   12.20  Zn(OH)2
  Zn(OH)2(am)      -1.06     11.41   12.47  Zn(OH)2
  Zn(OH)2(beta)    -0.34     11.41   11.75  Zn(OH)2
  Zn(OH)2(epsilon)  -0.12     11.41   11.53  Zn(OH)2
  Zn(OH)2(gamma)   -0.32     11.41   11.73  Zn(OH)2
  Zn2(OH)3Cl       -4.21     10.98   15.19  Zn2(OH)3Cl
  Zn5(OH)8Cl2      -5.12     33.38   38.50  Zn5(OH)8Cl2
  ZnCl2           -19.33    -12.28    7.05  ZnCl2
  Znmetal         -41.97    -16.19   25.79  Zn
  ZnO(active)       0.23     11.41   11.19  ZnO

**For a gas, SI = log10(fugacity). Fugacity = pressure * phi / 1 atm.
  For ideal gases, phi = 1.

------------------
End of simulation.
------------------

-------------------------------------
Reading input data for simulation 38.
-------------------------------------

	SOLUTION 36
	pH		10.0
	Cl		0.01		mol/kgw
	Na		0.01		mol/kgw
	Zn	0.200 	mmol/kgw
	Nta  0.200 	mmol/kgw
	END
-------------------------------------------
Beginning of initial solution calculations.
-------------------------------------------

Initial solution 36.	

-----------------------------Solution composition------------------------------

	Elements           Molality       Moles

	Cl                1.000e-02   1.000e-02
	Na                1.000e-02   1.000e-02
	Nta               2.000e-04   2.000e-04
	Zn                2.000e-04   2.000e-04

----------------------------Description of solution----------------------------

                                       pH  =  10.000    
                                       pe  =   4.000    
                        Activity of water  =   1.000
                 Ionic strength (mol/kgw)  =   1.028e-02
                       Mass of water (kg)  =   1.000e+00
                 Total alkalinity (eq/kg)  =   3.933e-04
                         Temperature (°C)  =  25.00
                  Electrical balance (eq)  =  -3.933e-04
 Percent error, 100*(Cat-|An|)/(Cat+|An|)  =  -1.93
                               Iterations  =  11
                                  Total H  = 1.110139e+02
                                  Total O  = 5.550703e+01

----------------------------Distribution of species----------------------------

                                               Log       Log       Log    mole V
   Species          Molality    Activity  Molality  Activity     Gamma   cm³/mol

   OH-             1.120e-04   1.007e-04    -3.951    -3.997    -0.046     (0)  
   H+              1.110e-10   1.000e-10    -9.955   -10.000    -0.045      0.00
   H2O             5.551e+01   9.997e-01     1.744    -0.000     0.000     18.07
Cl            1.000e-02
   Cl-             1.000e-02   9.008e-03    -2.000    -2.045    -0.045     (0)  
   ZnOHCl          9.483e-09   9.483e-09    -8.023    -8.023     0.000     (0)  
   ZnCl+           7.993e-11   7.196e-11   -10.097   -10.143    -0.046     (0)  
   ZnCl2           1.027e-12   1.027e-12   -11.988   -11.988     0.000     (0)  
   ZnCl3-          8.165e-15   7.351e-15   -14.088   -14.134    -0.046     (0)  
   ZnCl4-2         4.980e-17   3.311e-17   -16.303   -16.480    -0.177     (0)  
H(0)          1.413e-31
   H2              7.063e-32   7.079e-32   -31.151   -31.150     0.001     (0)  
Na            1.000e-02
   Na+             1.000e-02   9.008e-03    -2.000    -2.045    -0.045     (0)  
Nta           2.000e-04
   Zn(Nta)-        1.193e-04   1.075e-04    -3.923    -3.969    -0.045     (0)  
   ZnOH(Nta)-2     7.973e-05   5.249e-05    -4.098    -4.280    -0.182     (0)  
   H(Nta)-2        3.996e-07   2.482e-07    -6.398    -6.605    -0.207     (0)  
   Nta-3           3.351e-07   1.309e-07    -6.475    -6.883    -0.408     (0)  
   Zn(Nta)2-4      1.183e-07   2.224e-08    -6.927    -7.653    -0.726     (0)  
   H2(Nta)-        2.446e-14   2.172e-14   -13.611   -13.663    -0.052     (0)  
   H3(Nta)         2.172e-22   2.172e-22   -21.663   -21.663     0.000     (0)  
   H4(Nta)+        2.446e-31   2.172e-31   -30.611   -30.663    -0.052     (0)  
O(0)          2.017e-30
   O2              1.008e-30   1.011e-30   -29.996   -29.995     0.001     (0)  
Zn            2.000e-04
   Zn(Nta)-        1.193e-04   1.075e-04    -3.923    -3.969    -0.045     (0)  
   ZnOH(Nta)-2     7.973e-05   5.249e-05    -4.098    -4.280    -0.182     (0)  
   Zn(OH)2         5.107e-07   5.107e-07    -6.292    -6.292     0.000     (0)  
   Zn(OH)3-        2.902e-07   2.576e-07    -6.537    -6.589    -0.052     (0)  
   Zn(Nta)2-4      1.183e-07   2.224e-08    -6.927    -7.653    -0.726     (0)  
   ZnOH+           3.606e-08   3.201e-08    -7.443    -7.495    -0.052     (0)  
   ZnOHCl          9.483e-09   9.483e-09    -8.023    -8.023     0.000     (0)  
   Zn+2            4.830e-09   3.180e-09    -8.316    -8.498    -0.182     (0)  
   Zn(OH)4-2       1.662e-09   1.032e-09    -8.779    -8.986    -0.207     (0)  
   ZnCl+           7.993e-11   7.196e-11   -10.097   -10.143    -0.046     (0)  
   ZnCl2           1.027e-12   1.027e-12   -11.988   -11.988     0.000     (0)  
   ZnCl3-          8.165e-15   7.351e-15   -14.088   -14.134    -0.046     (0)  
   ZnCl4-2         4.980e-17   3.311e-17   -16.303   -16.480    -0.177     (0)  

------------------------------Saturation indices-------------------------------

  Phase               SI** log IAP   log K(298 K,   1 atm)

  Halite           -5.69     -4.09    1.60  NaCl
  O2(g)           -27.09     56.00   83.09  O2
  Zincite           0.17     11.50   11.33  ZnO
  Zn(OH)2          -0.70     11.50   12.20  Zn(OH)2
  Zn(OH)2(am)      -0.97     11.50   12.47  Zn(OH)2
  Zn(OH)2(beta)    -0.25     11.50   11.75  Zn(OH)2
  Zn(OH)2(epsilon)  -0.03     11.50   11.53  Zn(OH)2
  Zn(OH)2(gamma)   -0.23     11.50   11.73  Zn(OH)2
  Zn2(OH)3Cl       -4.23     10.96   15.19  Zn2(OH)3Cl
  Zn5(OH)8Cl2      -5.08     33.42   38.50  Zn5(OH)8Cl2
  ZnCl2           -19.64    -12.59    7.05  ZnCl2
  Znmetal         -42.29    -16.50   25.79  Zn
  ZnO(active)       0.31     11.50   11.19  ZnO

**For a gas, SI = log10(fugacity). Fugacity = pressure * phi / 1 atm.
  For ideal gases, phi = 1.

------------------
End of simulation.
------------------

-------------------------------------
Reading input data for simulation 39.
-------------------------------------

----------------------------------
End of Run after 0.059541 Seconds.
----------------------------------

