   Input file: /Users/wangjincheng/Desktop/irp-jw21-main/Project_jw21/pqi/0.05ZnEdta.pqi
  Output file: /Users/wangjincheng/Desktop/irp-jw21-main/Project_jw21/pqo/0.05ZnEdta.pqi.pqi.out
Database file: /Users/wangjincheng/Desktop/irp-jw21-main/Project_jw21/phreeqc/database/minteq.v4.dat

------------------
Reading data base.
------------------

	SOLUTION_MASTER_SPECIES
	SOLUTION_SPECIES
	SOLUTION_SPECIES
	PHASES
	PHASES
	SURFACE_MASTER_SPECIES
	SURFACE_SPECIES
	END
------------------------------------
Reading input data for simulation 1.
------------------------------------

	DATABASE /Users/wangjincheng/Desktop/irp-jw21-main/Project_jw21/phreeqc/database/minteq.v4.dat
	TITLE 04_SURFACE_COMPLEXATION
	SOLUTION_MASTER_SPECIES
	Zn		Zn+2		0.0	Zn	65.39
	Edta		Edta-4		2.0	288.214	288.214
	END
-----
TITLE
-----

 04_SURFACE_COMPLEXATION

------------------
End of simulation.
------------------

------------------------------------
Reading input data for simulation 2.
------------------------------------

	SOLUTION_SPECIES
	Zn+2 + Edta-4 = Zn(Edta)-2
	log_k		16.631
	Zn+2 + Edta-4 + H+ = ZnH(Edta)-
	log_k		19.689
	Zn+2 + Edta-4 + H2O = ZnOH(Edta)-3 + H+
	log_k		4.945
	END
------------------
End of simulation.
------------------

------------------------------------
Reading input data for simulation 3.
------------------------------------

	SOLUTION 1
	pH		3.0
	Cl		0.05		mol/kgw
	Na		0.05		mol/kgw
	Zn	0.200 	mmol/kgw
	Edta  0.200 	mmol/kgw
	END
-------------------------------------------
Beginning of initial solution calculations.
-------------------------------------------

Initial solution 1.	

-----------------------------Solution composition------------------------------

	Elements           Molality       Moles

	Cl                5.000e-02   5.000e-02
	Edta              2.000e-04   2.000e-04
	Na                5.000e-02   5.000e-02
	Zn                2.000e-04   2.000e-04

----------------------------Description of solution----------------------------

                                       pH  =   3.000    
                                       pe  =   4.000    
                        Activity of water  =   0.998
                 Ionic strength (mol/kgw)  =   5.097e-02
                       Mass of water (kg)  =   1.000e+00
                 Total alkalinity (eq/kg)  =  -9.862e-04
                         Temperature (°C)  =  25.00
                  Electrical balance (eq)  =   9.862e-04
 Percent error, 100*(Cat-|An|)/(Cat+|An|)  =   0.97
                               Iterations  =   7
                                  Total H  = 1.110151e+02
                                  Total O  = 5.550683e+01

----------------------------Distribution of species----------------------------

                                               Log       Log       Log    mole V
   Species          Molality    Activity  Molality  Activity     Gamma   cm³/mol

   H+              1.219e-03   1.000e-03    -2.914    -3.000    -0.086      0.00
   OH-             1.241e-11   1.005e-11   -10.906   -10.998    -0.091     (0)  
   H2O             5.551e+01   9.983e-01     1.744    -0.001     0.000     18.07
Cl            5.000e-02
   Cl-             5.000e-02   4.100e-02    -1.301    -1.387    -0.086     (0)  
   ZnCl+           2.351e-06   1.916e-06    -5.629    -5.718    -0.089     (0)  
   ZnCl2           1.245e-07   1.245e-07    -6.905    -6.905     0.000     (0)  
   ZnCl3-          4.975e-09   4.055e-09    -8.303    -8.392    -0.089     (0)  
   ZnCl4-2         1.802e-10   8.314e-11    -9.744   -10.080    -0.336     (0)  
   ZnOHCl          2.521e-11   2.521e-11   -10.598   -10.598     0.000     (0)  
Edta          2.000e-04
   Zn(Edta)-2      9.592e-05   4.339e-05    -4.018    -4.363    -0.345     (0)  
   ZnH(Edta)-      6.047e-05   4.959e-05    -4.218    -4.305    -0.086     (0)  
   H2(Edta)-2      2.620e-05   9.073e-06    -4.582    -5.042    -0.461     (0)  
   H3(Edta)-       1.556e-05   1.193e-05    -4.808    -4.923    -0.115     (0)  
   H4(Edta)        1.725e-06   1.725e-06    -5.763    -5.763     0.000     (0)  
   H5(Edta)+       7.111e-08   5.455e-08    -7.148    -7.263    -0.115     (0)  
   H(Edta)-3       5.262e-08   4.839e-09    -7.279    -8.315    -1.036     (0)  
   ZnOH(Edta)-3    5.320e-13   8.925e-14   -12.274   -13.049    -0.775     (0)  
   Na(Edta)-3      1.219e-14   1.121e-15   -13.914   -14.950    -1.036     (0)  
   Edta-4          1.303e-15   5.455e-17   -14.885   -16.263    -1.378     (0)  
H(0)          1.399e-17
   H2              6.997e-18   7.079e-18   -17.155   -17.150     0.005     (0)  
Na            5.000e-02
   Na+             5.000e-02   4.100e-02    -1.301    -1.387    -0.086     (0)  
   Na(Edta)-3      1.219e-14   1.121e-15   -13.914   -14.950    -1.036     (0)  
O(0)          0.000e+00
   O2              0.000e+00   0.000e+00   -58.002   -57.997     0.005     (0)  
Zn            2.000e-04
   Zn(Edta)-2      9.592e-05   4.339e-05    -4.018    -4.363    -0.345     (0)  
   ZnH(Edta)-      6.047e-05   4.959e-05    -4.218    -4.305    -0.086     (0)  
   Zn+2            4.113e-05   1.860e-05    -4.386    -4.730    -0.345     (0)  
   ZnCl+           2.351e-06   1.916e-06    -5.629    -5.718    -0.089     (0)  
   ZnCl2           1.245e-07   1.245e-07    -6.905    -6.905     0.000     (0)  
   ZnCl3-          4.975e-09   4.055e-09    -8.303    -8.392    -0.089     (0)  
   ZnCl4-2         1.802e-10   8.314e-11    -9.744   -10.080    -0.336     (0)  
   ZnOHCl          2.521e-11   2.521e-11   -10.598   -10.598     0.000     (0)  
   ZnOH+           2.438e-11   1.870e-11   -10.613   -10.728    -0.115     (0)  
   ZnOH(Edta)-3    5.320e-13   8.925e-14   -12.274   -13.049    -0.775     (0)  
   Zn(OH)2         2.979e-17   2.979e-17   -16.526   -16.526     0.000     (0)  
   Zn(OH)3-        1.957e-24   1.501e-24   -23.709   -23.824    -0.115     (0)  
   Zn(OH)4-2       1.735e-33   6.006e-34   -32.761   -33.221    -0.461     (0)  

------------------------------Saturation indices-------------------------------

  Phase               SI** log IAP   log K(298 K,   1 atm)

  Halite           -4.38     -2.77    1.60  NaCl
  O2(g)           -55.09     28.00   83.09  O2
  Zincite         -10.07      1.27   11.33  ZnO
  Zn(OH)2         -10.93      1.27   12.20  Zn(OH)2
  Zn(OH)2(am)     -11.21      1.27   12.47  Zn(OH)2
  Zn(OH)2(beta)   -10.49      1.27   11.75  Zn(OH)2
  Zn(OH)2(epsilon) -10.27      1.27   11.53  Zn(OH)2
  Zn(OH)2(gamma)  -10.47      1.27   11.73  Zn(OH)2
  Zn2(OH)3Cl      -17.04     -1.85   15.19  Zn2(OH)3Cl
  Zn5(OH)8Cl2     -40.93     -2.43   38.50  Zn5(OH)8Cl2
  ZnCl2           -14.55     -7.50    7.05  ZnCl2
  Znmetal         -38.52    -12.73   25.79  Zn
  ZnO(active)      -9.92      1.27   11.19  ZnO

**For a gas, SI = log10(fugacity). Fugacity = pressure * phi / 1 atm.
  For ideal gases, phi = 1.

------------------
End of simulation.
------------------

------------------------------------
Reading input data for simulation 4.
------------------------------------

	SOLUTION 2
	pH		3.2
	Cl		0.05		mol/kgw
	Na		0.05		mol/kgw
	Zn	0.200 	mmol/kgw
	Edta  0.200 	mmol/kgw
	END
-------------------------------------------
Beginning of initial solution calculations.
-------------------------------------------

Initial solution 2.	

-----------------------------Solution composition------------------------------

	Elements           Molality       Moles

	Cl                5.000e-02   5.000e-02
	Edta              2.000e-04   2.000e-04
	Na                5.000e-02   5.000e-02
	Zn                2.000e-04   2.000e-04

----------------------------Description of solution----------------------------

                                       pH  =   3.200    
                                       pe  =   4.000    
                        Activity of water  =   0.998
                 Ionic strength (mol/kgw)  =   5.075e-02
                       Mass of water (kg)  =   1.000e+00
                 Total alkalinity (eq/kg)  =  -4.837e-04
                         Temperature (°C)  =  25.00
                  Electrical balance (eq)  =   4.837e-04
 Percent error, 100*(Cat-|An|)/(Cat+|An|)  =   0.48
                               Iterations  =   7
                                  Total H  = 1.110145e+02
                                  Total O  = 5.550683e+01

----------------------------Distribution of species----------------------------

                                               Log       Log       Log    mole V
   Species          Molality    Activity  Molality  Activity     Gamma   cm³/mol

   H+              7.691e-04   6.310e-04    -3.114    -3.200    -0.086      0.00
   OH-             1.966e-11   1.593e-11   -10.706   -10.798    -0.091     (0)  
   H2O             5.551e+01   9.983e-01     1.744    -0.001     0.000     18.07
Cl            5.000e-02
   Cl-             5.000e-02   4.102e-02    -1.301    -1.387    -0.086     (0)  
   ZnCl+           1.541e-06   1.257e-06    -5.812    -5.901    -0.089     (0)  
   ZnCl2           8.168e-08   8.168e-08    -7.088    -7.088     0.000     (0)  
   ZnCl3-          3.264e-09   2.661e-09    -8.486    -8.575    -0.089     (0)  
   ZnCl4-2         1.182e-10   5.458e-11    -9.928   -10.263    -0.335     (0)  
   ZnOHCl          2.621e-11   2.621e-11   -10.582   -10.582     0.000     (0)  
Edta          2.000e-04
   Zn(Edta)-2      1.226e-04   5.553e-05    -3.911    -4.255    -0.344     (0)  
   ZnH(Edta)-      4.882e-05   4.005e-05    -4.311    -4.397    -0.086     (0)  
   H2(Edta)-2      2.032e-05   7.052e-06    -4.692    -5.152    -0.460     (0)  
   H3(Edta)-       7.625e-06   5.852e-06    -5.118    -5.233    -0.115     (0)  
   H4(Edta)        5.337e-07   5.337e-07    -6.273    -6.273     0.000     (0)  
   H(Edta)-3       6.448e-08   5.961e-09    -7.191    -8.225    -1.034     (0)  
   H5(Edta)+       1.387e-08   1.065e-08    -7.858    -7.973    -0.115     (0)  
   ZnOH(Edta)-3    1.076e-12   1.811e-13   -11.968   -12.742    -0.774     (0)  
   Na(Edta)-3      2.368e-14   2.189e-15   -13.626   -14.660    -1.034     (0)  
   Edta-4          2.532e-15   1.065e-16   -14.597   -15.973    -1.376     (0)  
H(0)          5.571e-18
   H2              2.786e-18   2.818e-18   -17.555   -17.550     0.005     (0)  
Na            5.000e-02
   Na+             5.000e-02   4.102e-02    -1.301    -1.387    -0.086     (0)  
   Na(Edta)-3      2.368e-14   2.189e-15   -13.626   -14.660    -1.034     (0)  
O(0)          0.000e+00
   O2              0.000e+00   0.000e+00   -57.202   -57.197     0.005     (0)  
Zn            2.000e-04
   Zn(Edta)-2      1.226e-04   5.553e-05    -3.911    -4.255    -0.344     (0)  
   ZnH(Edta)-      4.882e-05   4.005e-05    -4.311    -4.397    -0.086     (0)  
   Zn+2            2.693e-05   1.220e-05    -4.570    -4.914    -0.344     (0)  
   ZnCl+           1.541e-06   1.257e-06    -5.812    -5.901    -0.089     (0)  
   ZnCl2           8.168e-08   8.168e-08    -7.088    -7.088     0.000     (0)  
   ZnCl3-          3.264e-09   2.661e-09    -8.486    -8.575    -0.089     (0)  
   ZnCl4-2         1.182e-10   5.458e-11    -9.928   -10.263    -0.335     (0)  
   ZnOHCl          2.621e-11   2.621e-11   -10.582   -10.582     0.000     (0)  
   ZnOH+           2.531e-11   1.943e-11   -10.597   -10.712    -0.115     (0)  
   ZnOH(Edta)-3    1.076e-12   1.811e-13   -11.968   -12.742    -0.774     (0)  
   Zn(OH)2         4.906e-17   4.906e-17   -16.309   -16.309     0.000     (0)  
   Zn(OH)3-        5.104e-24   3.917e-24   -23.292   -23.407    -0.115     (0)  
   Zn(OH)4-2       7.159e-33   2.484e-33   -32.145   -32.605    -0.460     (0)  

------------------------------Saturation indices-------------------------------

  Phase               SI** log IAP   log K(298 K,   1 atm)

  Halite           -4.38     -2.77    1.60  NaCl
  O2(g)           -54.29     28.80   83.09  O2
  Zincite          -9.85      1.49   11.33  ZnO
  Zn(OH)2         -10.72      1.48   12.20  Zn(OH)2
  Zn(OH)2(am)     -10.99      1.48   12.47  Zn(OH)2
  Zn(OH)2(beta)   -10.27      1.48   11.75  Zn(OH)2
  Zn(OH)2(epsilon) -10.05      1.48   11.53  Zn(OH)2
  Zn(OH)2(gamma)  -10.25      1.48   11.73  Zn(OH)2
  Zn2(OH)3Cl      -16.81     -1.62   15.19  Zn2(OH)3Cl
  Zn5(OH)8Cl2     -40.25     -1.75   38.50  Zn5(OH)8Cl2
  ZnCl2           -14.74     -7.69    7.05  ZnCl2
  Znmetal         -38.70    -12.91   25.79  Zn
  ZnO(active)      -9.70      1.49   11.19  ZnO

**For a gas, SI = log10(fugacity). Fugacity = pressure * phi / 1 atm.
  For ideal gases, phi = 1.

------------------
End of simulation.
------------------

------------------------------------
Reading input data for simulation 5.
------------------------------------

	SOLUTION 3
	pH		3.4
	Cl		0.05		mol/kgw
	Na		0.05		mol/kgw
	Zn	0.200 	mmol/kgw
	Edta  0.200 	mmol/kgw
	END
-------------------------------------------
Beginning of initial solution calculations.
-------------------------------------------

Initial solution 3.	

-----------------------------Solution composition------------------------------

	Elements           Molality       Moles

	Cl                5.000e-02   5.000e-02
	Edta              2.000e-04   2.000e-04
	Na                5.000e-02   5.000e-02
	Zn                2.000e-04   2.000e-04

----------------------------Description of solution----------------------------

                                       pH  =   3.400    
                                       pe  =   4.000    
                        Activity of water  =   0.998
                 Ionic strength (mol/kgw)  =   5.062e-02
                       Mass of water (kg)  =   1.000e+00
                 Total alkalinity (eq/kg)  =  -1.624e-04
                         Temperature (°C)  =  25.00
                  Electrical balance (eq)  =   1.624e-04
 Percent error, 100*(Cat-|An|)/(Cat+|An|)  =   0.16
                               Iterations  =   9
                                  Total H  = 1.110142e+02
                                  Total O  = 5.550683e+01

----------------------------Distribution of species----------------------------

                                               Log       Log       Log    mole V
   Species          Molality    Activity  Molality  Activity     Gamma   cm³/mol

   H+              4.852e-04   3.981e-04    -3.314    -3.400    -0.086      0.00
   OH-             3.115e-11   2.525e-11   -10.507   -10.598    -0.091     (0)  
   H2O             5.551e+01   9.983e-01     1.744    -0.001     0.000     18.07
Cl            5.000e-02
   Cl-             5.000e-02   4.102e-02    -1.301    -1.387    -0.086     (0)  
   ZnCl+           9.985e-07   8.143e-07    -6.001    -6.089    -0.089     (0)  
   ZnCl2           5.294e-08   5.294e-08    -7.276    -7.276     0.000     (0)  
   ZnCl3-          2.115e-09   1.725e-09    -8.675    -8.763    -0.089     (0)  
   ZnCl4-2         7.656e-11   3.539e-11   -10.116   -10.451    -0.335     (0)  
   ZnOHCl          2.692e-11   2.692e-11   -10.570   -10.570     0.000     (0)  
Edta          2.000e-04
   Zn(Edta)-2      1.451e-04   6.574e-05    -3.838    -4.182    -0.344     (0)  
   ZnH(Edta)-      3.645e-05   2.991e-05    -4.438    -4.524    -0.086     (0)  
   H2(Edta)-2      1.476e-05   5.130e-06    -4.831    -5.290    -0.459     (0)  
   H3(Edta)-       3.498e-06   2.686e-06    -5.456    -5.571    -0.115     (0)  
   H4(Edta)        1.546e-07   1.546e-07    -6.811    -6.811     0.000     (0)  
   H(Edta)-3       7.410e-08   6.872e-09    -7.130    -8.163    -1.033     (0)  
   H5(Edta)+       2.534e-09   1.946e-09    -8.596    -8.711    -0.115     (0)  
   ZnOH(Edta)-3    2.016e-12   3.397e-13   -11.696   -12.469    -0.773     (0)  
   Na(Edta)-3      4.314e-14   4.001e-15   -13.365   -14.398    -1.033     (0)  
   Edta-4          4.612e-15   1.946e-16   -14.336   -15.711    -1.375     (0)  
H(0)          2.218e-18
   H2              1.109e-18   1.122e-18   -17.955   -17.950     0.005     (0)  
Na            5.000e-02
   Na+             5.000e-02   4.102e-02    -1.301    -1.387    -0.086     (0)  
   Na(Edta)-3      4.314e-14   4.001e-15   -13.365   -14.398    -1.033     (0)  
O(0)          0.000e+00
   O2              0.000e+00   0.000e+00   -56.402   -56.397     0.005     (0)  
Zn            2.000e-04
   Zn(Edta)-2      1.451e-04   6.574e-05    -3.838    -4.182    -0.344     (0)  
   ZnH(Edta)-      3.645e-05   2.991e-05    -4.438    -4.524    -0.086     (0)  
   Zn+2            1.744e-05   7.902e-06    -4.759    -5.102    -0.344     (0)  
   ZnCl+           9.985e-07   8.143e-07    -6.001    -6.089    -0.089     (0)  
   ZnCl2           5.294e-08   5.294e-08    -7.276    -7.276     0.000     (0)  
   ZnCl3-          2.115e-09   1.725e-09    -8.675    -8.763    -0.089     (0)  
   ZnCl4-2         7.656e-11   3.539e-11   -10.116   -10.451    -0.335     (0)  
   ZnOHCl          2.692e-11   2.692e-11   -10.570   -10.570     0.000     (0)  
   ZnOH+           2.599e-11   1.995e-11   -10.585   -10.700    -0.115     (0)  
   ZnOH(Edta)-3    2.016e-12   3.397e-13   -11.696   -12.469    -0.773     (0)  
   Zn(OH)2         7.984e-17   7.984e-17   -16.098   -16.098     0.000     (0)  
   Zn(OH)3-        1.316e-23   1.010e-23   -22.881   -22.996    -0.115     (0)  
   Zn(OH)4-2       2.922e-32   1.016e-32   -31.534   -31.993    -0.459     (0)  

------------------------------Saturation indices-------------------------------

  Phase               SI** log IAP   log K(298 K,   1 atm)

  Halite           -4.38     -2.77    1.60  NaCl
  O2(g)           -53.49     29.60   83.09  O2
  Zincite          -9.64      1.70   11.33  ZnO
  Zn(OH)2         -10.50      1.70   12.20  Zn(OH)2
  Zn(OH)2(am)     -10.78      1.70   12.47  Zn(OH)2
  Zn(OH)2(beta)   -10.06      1.70   11.75  Zn(OH)2
  Zn(OH)2(epsilon)  -9.84      1.70   11.53  Zn(OH)2
  Zn(OH)2(gamma)  -10.04      1.70   11.73  Zn(OH)2
  Zn2(OH)3Cl      -16.58     -1.39   15.19  Zn2(OH)3Cl
  Zn5(OH)8Cl2     -39.59     -1.09   38.50  Zn5(OH)8Cl2
  ZnCl2           -14.93     -7.88    7.05  ZnCl2
  Znmetal         -38.89    -13.10   25.79  Zn
  ZnO(active)      -9.49      1.70   11.19  ZnO

**For a gas, SI = log10(fugacity). Fugacity = pressure * phi / 1 atm.
  For ideal gases, phi = 1.

------------------
End of simulation.
------------------

------------------------------------
Reading input data for simulation 6.
------------------------------------

	SOLUTION 4
	pH		3.6
	Cl		0.05		mol/kgw
	Na		0.05		mol/kgw
	Zn	0.200 	mmol/kgw
	Edta  0.200 	mmol/kgw
	END
-------------------------------------------
Beginning of initial solution calculations.
-------------------------------------------

Initial solution 4.	

-----------------------------Solution composition------------------------------

	Elements           Molality       Moles

	Cl                5.000e-02   5.000e-02
	Edta              2.000e-04   2.000e-04
	Na                5.000e-02   5.000e-02
	Zn                2.000e-04   2.000e-04

----------------------------Description of solution----------------------------

                                       pH  =   3.600    
                                       pe  =   4.000    
                        Activity of water  =   0.998
                 Ionic strength (mol/kgw)  =   5.053e-02
                       Mass of water (kg)  =   1.000e+00
                 Total alkalinity (eq/kg)  =   4.284e-05
                         Temperature (°C)  =  25.00
                  Electrical balance (eq)  =  -4.284e-05
 Percent error, 100*(Cat-|An|)/(Cat+|An|)  =  -0.04
                               Iterations  =   8
                                  Total H  = 1.110140e+02
                                  Total O  = 5.550683e+01

----------------------------Distribution of species----------------------------

                                               Log       Log       Log    mole V
   Species          Molality    Activity  Molality  Activity     Gamma   cm³/mol

   H+              3.061e-04   2.512e-04    -3.514    -3.600    -0.086      0.00
   OH-             4.936e-11   4.002e-11   -10.307   -10.398    -0.091     (0)  
   H2O             5.551e+01   9.983e-01     1.744    -0.001     0.000     18.07
Cl            5.000e-02
   Cl-             5.000e-02   4.103e-02    -1.301    -1.387    -0.086     (0)  
   ZnCl+           6.419e-07   5.235e-07    -6.193    -6.281    -0.089     (0)  
   ZnCl2           3.404e-08   3.404e-08    -7.468    -7.468     0.000     (0)  
   ZnCl3-          1.360e-09   1.109e-09    -8.866    -8.955    -0.089     (0)  
   ZnCl4-2         4.922e-11   2.276e-11   -10.308   -10.643    -0.335     (0)  
   ZnOHCl          2.743e-11   2.743e-11   -10.562   -10.562     0.000     (0)  
Edta          2.000e-04
   Zn(Edta)-2      1.624e-04   7.362e-05    -3.790    -4.133    -0.344     (0)  
   ZnH(Edta)-      2.575e-05   2.113e-05    -4.589    -4.675    -0.086     (0)  
   H2(Edta)-2      1.023e-05   3.557e-06    -4.990    -5.449    -0.459     (0)  
   H3(Edta)-       1.530e-06   1.175e-06    -5.815    -5.930    -0.115     (0)  
   H(Edta)-3       8.128e-08   7.553e-09    -7.090    -8.122    -1.032     (0)  
   H4(Edta)        4.267e-08   4.267e-08    -7.370    -7.370     0.000     (0)  
   H5(Edta)+       4.413e-10   3.389e-10    -9.355    -9.470    -0.115     (0)  
   ZnOH(Edta)-3    3.574e-12   6.029e-13   -11.447   -12.220    -0.773     (0)  
   Na(Edta)-3      7.500e-14   6.970e-15   -13.125   -14.157    -1.032     (0)  
   Edta-4          8.020e-15   3.389e-16   -14.096   -15.470    -1.374     (0)  
H(0)          8.830e-19
   H2              4.415e-19   4.467e-19   -18.355   -18.350     0.005     (0)  
Na            5.000e-02
   Na+             5.000e-02   4.103e-02    -1.301    -1.387    -0.086     (0)  
   Na(Edta)-3      7.500e-14   6.970e-15   -13.125   -14.157    -1.032     (0)  
O(0)          0.000e+00
   O2              0.000e+00   0.000e+00   -55.602   -55.597     0.005     (0)  
Zn            2.000e-04
   Zn(Edta)-2      1.624e-04   7.362e-05    -3.790    -4.133    -0.344     (0)  
   ZnH(Edta)-      2.575e-05   2.113e-05    -4.589    -4.675    -0.086     (0)  
   Zn+2            1.120e-05   5.080e-06    -4.951    -5.294    -0.344     (0)  
   ZnCl+           6.419e-07   5.235e-07    -6.193    -6.281    -0.089     (0)  
   ZnCl2           3.404e-08   3.404e-08    -7.468    -7.468     0.000     (0)  
   ZnCl3-          1.360e-09   1.109e-09    -8.866    -8.955    -0.089     (0)  
   ZnCl4-2         4.922e-11   2.276e-11   -10.308   -10.643    -0.335     (0)  
   ZnOHCl          2.743e-11   2.743e-11   -10.562   -10.562     0.000     (0)  
   ZnOH+           2.647e-11   2.033e-11   -10.577   -10.692    -0.115     (0)  
   ZnOH(Edta)-3    3.574e-12   6.029e-13   -11.447   -12.220    -0.773     (0)  
   Zn(OH)2         1.289e-16   1.289e-16   -15.890   -15.890     0.000     (0)  
   Zn(OH)3-        3.367e-23   2.586e-23   -22.473   -22.587    -0.115     (0)  
   Zn(OH)4-2       1.184e-31   4.120e-32   -30.926   -31.385    -0.459     (0)  

------------------------------Saturation indices-------------------------------

  Phase               SI** log IAP   log K(298 K,   1 atm)

  Halite           -4.38     -2.77    1.60  NaCl
  O2(g)           -52.69     30.40   83.09  O2
  Zincite          -9.43      1.91   11.33  ZnO
  Zn(OH)2         -10.30      1.90   12.20  Zn(OH)2
  Zn(OH)2(am)     -10.57      1.90   12.47  Zn(OH)2
  Zn(OH)2(beta)    -9.85      1.90   11.75  Zn(OH)2
  Zn(OH)2(epsilon)  -9.63      1.90   11.53  Zn(OH)2
  Zn(OH)2(gamma)   -9.83      1.90   11.73  Zn(OH)2
  Zn2(OH)3Cl      -16.37     -1.18   15.19  Zn2(OH)3Cl
  Zn5(OH)8Cl2     -38.95     -0.45   38.50  Zn5(OH)8Cl2
  ZnCl2           -15.12     -8.07    7.05  ZnCl2
  Znmetal         -39.08    -13.29   25.79  Zn
  ZnO(active)      -9.28      1.91   11.19  ZnO

**For a gas, SI = log10(fugacity). Fugacity = pressure * phi / 1 atm.
  For ideal gases, phi = 1.

------------------
End of simulation.
------------------

------------------------------------
Reading input data for simulation 7.
------------------------------------

	SOLUTION 5
	pH		3.8
	Cl		0.05		mol/kgw
	Na		0.05		mol/kgw
	Zn	0.200 	mmol/kgw
	Edta  0.200 	mmol/kgw
	END
-------------------------------------------
Beginning of initial solution calculations.
-------------------------------------------

Initial solution 5.	

-----------------------------Solution composition------------------------------

	Elements           Molality       Moles

	Cl                5.000e-02   5.000e-02
	Edta              2.000e-04   2.000e-04
	Na                5.000e-02   5.000e-02
	Zn                2.000e-04   2.000e-04

----------------------------Description of solution----------------------------

                                       pH  =   3.800    
                                       pe  =   4.000    
                        Activity of water  =   0.998
                 Ionic strength (mol/kgw)  =   5.048e-02
                       Mass of water (kg)  =   1.000e+00
                 Total alkalinity (eq/kg)  =   1.736e-04
                         Temperature (°C)  =  25.00
                  Electrical balance (eq)  =  -1.736e-04
 Percent error, 100*(Cat-|An|)/(Cat+|An|)  =  -0.17
                               Iterations  =   8
                                  Total H  = 1.110139e+02
                                  Total O  = 5.550683e+01

----------------------------Distribution of species----------------------------

                                               Log       Log       Log    mole V
   Species          Molality    Activity  Molality  Activity     Gamma   cm³/mol

   H+              1.931e-04   1.585e-04    -3.714    -3.800    -0.086      0.00
   OH-             7.822e-11   6.342e-11   -10.107   -10.198    -0.091     (0)  
   H2O             5.551e+01   9.983e-01     1.744    -0.001     0.000     18.07
Cl            5.000e-02
   Cl-             5.000e-02   4.103e-02    -1.301    -1.387    -0.086     (0)  
   ZnCl+           4.106e-07   3.349e-07    -6.387    -6.475    -0.088     (0)  
   ZnCl2           2.178e-08   2.178e-08    -7.662    -7.662     0.000     (0)  
   ZnCl3-          8.703e-10   7.099e-10    -9.060    -9.149    -0.088     (0)  
   ZnCl4-2         3.149e-11   1.457e-11   -10.502   -10.837    -0.335     (0)  
   ZnOHCl          2.781e-11   2.781e-11   -10.556   -10.556     0.000     (0)  
Edta          2.000e-04
   Zn(Edta)-2      1.749e-04   7.932e-05    -3.757    -4.101    -0.343     (0)  
   ZnH(Edta)-      1.751e-05   1.437e-05    -4.757    -4.843    -0.086     (0)  
   H2(Edta)-2      6.854e-06   2.385e-06    -5.164    -5.622    -0.458     (0)  
   H3(Edta)-       6.473e-07   4.972e-07    -6.189    -6.303    -0.115     (0)  
   H(Edta)-3       8.628e-08   8.027e-09    -7.064    -8.095    -1.031     (0)  
   H4(Edta)        1.139e-08   1.139e-08    -7.943    -7.943     0.000     (0)  
   H5(Edta)+       7.432e-11   5.709e-11   -10.129   -10.243    -0.115     (0)  
   ZnOH(Edta)-3    6.099e-12   1.030e-12   -11.215   -11.987    -0.773     (0)  
   Na(Edta)-3      1.262e-13   1.174e-14   -12.899   -13.930    -1.031     (0)  
   Edta-4          1.349e-14   5.709e-16   -13.870   -15.243    -1.374     (0)  
H(0)          3.515e-19
   H2              1.758e-19   1.778e-19   -18.755   -18.750     0.005     (0)  
Na            5.000e-02
   Na+             5.000e-02   4.103e-02    -1.301    -1.387    -0.086     (0)  
   Na(Edta)-3      1.262e-13   1.174e-14   -12.899   -13.930    -1.031     (0)  
O(0)          0.000e+00
   O2              0.000e+00   0.000e+00   -54.802   -54.797     0.005     (0)  
Zn            2.000e-04
   Zn(Edta)-2      1.749e-04   7.932e-05    -3.757    -4.101    -0.343     (0)  
   ZnH(Edta)-      1.751e-05   1.437e-05    -4.757    -4.843    -0.086     (0)  
   Zn+2            7.165e-06   3.250e-06    -5.145    -5.488    -0.343     (0)  
   ZnCl+           4.106e-07   3.349e-07    -6.387    -6.475    -0.088     (0)  
   ZnCl2           2.178e-08   2.178e-08    -7.662    -7.662     0.000     (0)  
   ZnCl3-          8.703e-10   7.099e-10    -9.060    -9.149    -0.088     (0)  
   ZnCl4-2         3.149e-11   1.457e-11   -10.502   -10.837    -0.335     (0)  
   ZnOHCl          2.781e-11   2.781e-11   -10.556   -10.556     0.000     (0)  
   ZnOH+           2.684e-11   2.061e-11   -10.571   -10.686    -0.115     (0)  
   ZnOH(Edta)-3    6.099e-12   1.030e-12   -11.215   -11.987    -0.773     (0)  
   Zn(OH)2         2.072e-16   2.072e-16   -15.684   -15.684     0.000     (0)  
   Zn(OH)3-        8.575e-23   6.586e-23   -22.067   -22.181    -0.115     (0)  
   Zn(OH)4-2       4.778e-31   1.663e-31   -30.321   -30.779    -0.458     (0)  

------------------------------Saturation indices-------------------------------

  Phase               SI** log IAP   log K(298 K,   1 atm)

  Halite           -4.38     -2.77    1.60  NaCl
  O2(g)           -51.89     31.20   83.09  O2
  Zincite          -9.22      2.11   11.33  ZnO
  Zn(OH)2         -10.09      2.11   12.20  Zn(OH)2
  Zn(OH)2(am)     -10.36      2.11   12.47  Zn(OH)2
  Zn(OH)2(beta)    -9.64      2.11   11.75  Zn(OH)2
  Zn(OH)2(epsilon)  -9.42      2.11   11.53  Zn(OH)2
  Zn(OH)2(gamma)   -9.62      2.11   11.73  Zn(OH)2
  Zn2(OH)3Cl      -16.16     -0.97   15.19  Zn2(OH)3Cl
  Zn5(OH)8Cl2     -38.32      0.18   38.50  Zn5(OH)8Cl2
  ZnCl2           -15.31     -8.26    7.05  ZnCl2
  Znmetal         -39.28    -13.49   25.79  Zn
  ZnO(active)      -9.08      2.11   11.19  ZnO

**For a gas, SI = log10(fugacity). Fugacity = pressure * phi / 1 atm.
  For ideal gases, phi = 1.

------------------
End of simulation.
------------------

------------------------------------
Reading input data for simulation 8.
------------------------------------

	SOLUTION 6
	pH		4.0
	Cl		0.05		mol/kgw
	Na		0.05		mol/kgw
	Zn	0.200 	mmol/kgw
	Edta  0.200 	mmol/kgw
	END
-------------------------------------------
Beginning of initial solution calculations.
-------------------------------------------

Initial solution 6.	

-----------------------------Solution composition------------------------------

	Elements           Molality       Moles

	Cl                5.000e-02   5.000e-02
	Edta              2.000e-04   2.000e-04
	Na                5.000e-02   5.000e-02
	Zn                2.000e-04   2.000e-04

----------------------------Description of solution----------------------------

                                       pH  =   4.000    
                                       pe  =   4.000    
                        Activity of water  =   0.998
                 Ionic strength (mol/kgw)  =   5.045e-02
                       Mass of water (kg)  =   1.000e+00
                 Total alkalinity (eq/kg)  =   2.567e-04
                         Temperature (°C)  =  25.00
                  Electrical balance (eq)  =  -2.567e-04
 Percent error, 100*(Cat-|An|)/(Cat+|An|)  =  -0.26
                               Iterations  =   8
                                  Total H  = 1.110138e+02
                                  Total O  = 5.550683e+01

----------------------------Distribution of species----------------------------

                                               Log       Log       Log    mole V
   Species          Molality    Activity  Molality  Activity     Gamma   cm³/mol

   H+              1.219e-04   1.000e-04    -3.914    -4.000    -0.086      0.00
   OH-             1.240e-10   1.005e-10    -9.907    -9.998    -0.091     (0)  
   H2O             5.551e+01   9.983e-01     1.744    -0.001     0.000     18.07
Cl            5.000e-02
   Cl-             5.000e-02   4.103e-02    -1.301    -1.387    -0.086     (0)  
   ZnCl+           2.620e-07   2.137e-07    -6.582    -6.670    -0.088     (0)  
   ZnCl2           1.390e-08   1.390e-08    -7.857    -7.857     0.000     (0)  
   ZnCl3-          5.554e-10   4.530e-10    -9.255    -9.344    -0.088     (0)  
   ZnOHCl          2.813e-11   2.813e-11   -10.551   -10.551     0.000     (0)  
   ZnCl4-2         2.009e-11   9.295e-12   -10.697   -11.032    -0.335     (0)  
Edta          2.000e-04
   Zn(Edta)-2      1.836e-04   8.326e-05    -3.736    -4.080    -0.343     (0)  
   ZnH(Edta)-      1.160e-05   9.516e-06    -4.936    -5.022    -0.086     (0)  
   H2(Edta)-2      4.487e-06   1.562e-06    -5.348    -5.806    -0.458     (0)  
   H3(Edta)-       2.675e-07   2.055e-07    -6.573    -6.687    -0.115     (0)  
   H(Edta)-3       8.950e-08   8.332e-09    -7.048    -8.079    -1.031     (0)  
   H4(Edta)        2.970e-09   2.970e-09    -8.527    -8.527     0.000     (0)  
   H5(Edta)+       1.223e-11   9.392e-12   -10.913   -11.027    -0.115     (0)  
   ZnOH(Edta)-3    1.014e-11   1.713e-12   -10.994   -11.766    -0.772     (0)  
   Na(Edta)-3      2.075e-13   1.932e-14   -12.683   -13.714    -1.031     (0)  
   Edta-4          2.218e-14   9.392e-16   -13.654   -15.027    -1.373     (0)  
H(0)          1.400e-19
   H2              6.998e-20   7.079e-20   -19.155   -19.150     0.005     (0)  
Na            5.000e-02
   Na+             5.000e-02   4.103e-02    -1.301    -1.387    -0.086     (0)  
   Na(Edta)-3      2.075e-13   1.932e-14   -12.683   -13.714    -1.031     (0)  
O(0)          0.000e+00
   O2              0.000e+00   0.000e+00   -54.002   -53.997     0.005     (0)  
Zn            2.000e-04
   Zn(Edta)-2      1.836e-04   8.326e-05    -3.736    -4.080    -0.343     (0)  
   ZnH(Edta)-      1.160e-05   9.516e-06    -4.936    -5.022    -0.086     (0)  
   Zn+2            4.571e-06   2.073e-06    -5.340    -5.683    -0.343     (0)  
   ZnCl+           2.620e-07   2.137e-07    -6.582    -6.670    -0.088     (0)  
   ZnCl2           1.390e-08   1.390e-08    -7.857    -7.857     0.000     (0)  
   ZnCl3-          5.554e-10   4.530e-10    -9.255    -9.344    -0.088     (0)  
   ZnOHCl          2.813e-11   2.813e-11   -10.551   -10.551     0.000     (0)  
   ZnOH+           2.713e-11   2.084e-11   -10.566   -10.681    -0.115     (0)  
   ZnCl4-2         2.009e-11   9.295e-12   -10.697   -11.032    -0.335     (0)  
   ZnOH(Edta)-3    1.014e-11   1.713e-12   -10.994   -11.766    -0.772     (0)  
   Zn(OH)2         3.321e-16   3.321e-16   -15.479   -15.479     0.000     (0)  
   Zn(OH)3-        2.178e-22   1.673e-22   -21.662   -21.777    -0.115     (0)  
   Zn(OH)4-2       1.923e-30   6.695e-31   -29.716   -30.174    -0.458     (0)  

------------------------------Saturation indices-------------------------------

  Phase               SI** log IAP   log K(298 K,   1 atm)

  Halite           -4.38     -2.77    1.60  NaCl
  O2(g)           -51.09     32.00   83.09  O2
  Zincite          -9.02      2.32   11.33  ZnO
  Zn(OH)2          -9.88      2.32   12.20  Zn(OH)2
  Zn(OH)2(am)     -10.16      2.32   12.47  Zn(OH)2
  Zn(OH)2(beta)    -9.44      2.32   11.75  Zn(OH)2
  Zn(OH)2(epsilon)  -9.22      2.32   11.53  Zn(OH)2
  Zn(OH)2(gamma)   -9.42      2.32   11.73  Zn(OH)2
  Zn2(OH)3Cl      -15.95     -0.76   15.19  Zn2(OH)3Cl
  Zn5(OH)8Cl2     -37.70      0.80   38.50  Zn5(OH)8Cl2
  ZnCl2           -15.51     -8.46    7.05  ZnCl2
  Znmetal         -39.47    -13.68   25.79  Zn
  ZnO(active)      -8.87      2.32   11.19  ZnO

**For a gas, SI = log10(fugacity). Fugacity = pressure * phi / 1 atm.
  For ideal gases, phi = 1.

------------------
End of simulation.
------------------

------------------------------------
Reading input data for simulation 9.
------------------------------------

	SOLUTION 7
	pH		4.2
	Cl		0.05		mol/kgw
	Na		0.05		mol/kgw
	Zn	0.200 	mmol/kgw
	Edta  0.200 	mmol/kgw
	END
-------------------------------------------
Beginning of initial solution calculations.
-------------------------------------------

Initial solution 7.	

-----------------------------Solution composition------------------------------

	Elements           Molality       Moles

	Cl                5.000e-02   5.000e-02
	Edta              2.000e-04   2.000e-04
	Na                5.000e-02   5.000e-02
	Zn                2.000e-04   2.000e-04

----------------------------Description of solution----------------------------

                                       pH  =   4.200    
                                       pe  =   4.000    
                        Activity of water  =   0.998
                 Ionic strength (mol/kgw)  =   5.043e-02
                       Mass of water (kg)  =   1.000e+00
                 Total alkalinity (eq/kg)  =   3.094e-04
                         Temperature (°C)  =  25.00
                  Electrical balance (eq)  =  -3.094e-04
 Percent error, 100*(Cat-|An|)/(Cat+|An|)  =  -0.31
                               Iterations  =   9
                                  Total H  = 1.110138e+02
                                  Total O  = 5.550683e+01

----------------------------Distribution of species----------------------------

                                               Log       Log       Log    mole V
   Species          Molality    Activity  Molality  Activity     Gamma   cm³/mol

   H+              7.688e-05   6.310e-05    -4.114    -4.200    -0.086      0.00
   OH-             1.965e-10   1.593e-10    -9.707    -9.798    -0.091     (0)  
   H2O             5.551e+01   9.983e-01     1.744    -0.001     0.000     18.07
Cl            5.000e-02
   Cl-             5.000e-02   4.103e-02    -1.301    -1.387    -0.086     (0)  
   ZnCl+           1.671e-07   1.363e-07    -6.777    -6.866    -0.088     (0)  
   ZnCl2           8.863e-09   8.863e-09    -8.052    -8.052     0.000     (0)  
   ZnCl3-          3.541e-10   2.889e-10    -9.451    -9.539    -0.088     (0)  
   ZnOHCl          2.842e-11   2.842e-11   -10.546   -10.546     0.000     (0)  
   ZnCl4-2         1.281e-11   5.928e-12   -10.892   -11.227    -0.335     (0)  
Edta          2.000e-04
   Zn(Edta)-2      1.894e-04   8.591e-05    -3.723    -4.066    -0.343     (0)  
   ZnH(Edta)-      7.548e-06   6.195e-06    -5.122    -5.208    -0.086     (0)  
   H2(Edta)-2      2.890e-06   1.006e-06    -5.539    -5.997    -0.458     (0)  
   H3(Edta)-       1.087e-07   8.351e-08    -6.964    -7.078    -0.115     (0)  
   H(Edta)-3       9.132e-08   8.506e-09    -7.039    -8.070    -1.031     (0)  
   H4(Edta)        7.616e-10   7.616e-10    -9.118    -9.118     0.000     (0)  
   ZnOH(Edta)-3    1.658e-11   2.801e-12   -10.780   -11.553    -0.772     (0)  
   H5(Edta)+       1.978e-12   1.520e-12   -11.704   -11.818    -0.115     (0)  
   Na(Edta)-3      3.355e-13   3.125e-14   -12.474   -13.505    -1.031     (0)  
   Edta-4          3.588e-14   1.520e-15   -13.445   -14.818    -1.373     (0)  
H(0)          5.572e-20
   H2              2.786e-20   2.818e-20   -19.555   -19.550     0.005     (0)  
Na            5.000e-02
   Na+             5.000e-02   4.103e-02    -1.301    -1.387    -0.086     (0)  
   Na(Edta)-3      3.355e-13   3.125e-14   -12.474   -13.505    -1.031     (0)  
O(0)          0.000e+00
   O2              0.000e+00   0.000e+00   -53.202   -53.197     0.005     (0)  
Zn            2.000e-04
   Zn(Edta)-2      1.894e-04   8.591e-05    -3.723    -4.066    -0.343     (0)  
   ZnH(Edta)-      7.548e-06   6.195e-06    -5.122    -5.208    -0.086     (0)  
   Zn+2            2.914e-06   1.322e-06    -5.535    -5.879    -0.343     (0)  
   ZnCl+           1.671e-07   1.363e-07    -6.777    -6.866    -0.088     (0)  
   ZnCl2           8.863e-09   8.863e-09    -8.052    -8.052     0.000     (0)  
   ZnCl3-          3.541e-10   2.889e-10    -9.451    -9.539    -0.088     (0)  
   ZnOHCl          2.842e-11   2.842e-11   -10.546   -10.546     0.000     (0)  
   ZnOH+           2.742e-11   2.106e-11   -10.562   -10.676    -0.115     (0)  
   ZnOH(Edta)-3    1.658e-11   2.801e-12   -10.780   -11.553    -0.772     (0)  
   ZnCl4-2         1.281e-11   5.928e-12   -10.892   -11.227    -0.335     (0)  
   Zn(OH)2         5.319e-16   5.319e-16   -15.274   -15.274     0.000     (0)  
   Zn(OH)3-        5.528e-22   4.247e-22   -21.257   -21.372    -0.115     (0)  
   Zn(OH)4-2       7.735e-30   2.694e-30   -29.112   -29.570    -0.458     (0)  

------------------------------Saturation indices-------------------------------

  Phase               SI** log IAP   log K(298 K,   1 atm)

  Halite           -4.38     -2.77    1.60  NaCl
  O2(g)           -50.29     32.80   83.09  O2
  Zincite          -8.81      2.52   11.33  ZnO
  Zn(OH)2          -9.68      2.52   12.20  Zn(OH)2
  Zn(OH)2(am)      -9.95      2.52   12.47  Zn(OH)2
  Zn(OH)2(beta)    -9.23      2.52   11.75  Zn(OH)2
  Zn(OH)2(epsilon)  -9.01      2.52   11.53  Zn(OH)2
  Zn(OH)2(gamma)   -9.21      2.52   11.73  Zn(OH)2
  Zn2(OH)3Cl      -15.74     -0.55   15.19  Zn2(OH)3Cl
  Zn5(OH)8Cl2     -37.07      1.43   38.50  Zn5(OH)8Cl2
  ZnCl2           -15.70     -8.65    7.05  ZnCl2
  Znmetal         -39.67    -13.88   25.79  Zn
  ZnO(active)      -8.67      2.52   11.19  ZnO

**For a gas, SI = log10(fugacity). Fugacity = pressure * phi / 1 atm.
  For ideal gases, phi = 1.

------------------
End of simulation.
------------------

-------------------------------------
Reading input data for simulation 10.
-------------------------------------

	SOLUTION 8
	pH		4.4
	Cl		0.05		mol/kgw
	Na		0.05		mol/kgw
	Zn	0.200 	mmol/kgw
	Edta  0.200 	mmol/kgw
	END
-------------------------------------------
Beginning of initial solution calculations.
-------------------------------------------

Initial solution 8.	

-----------------------------Solution composition------------------------------

	Elements           Molality       Moles

	Cl                5.000e-02   5.000e-02
	Edta              2.000e-04   2.000e-04
	Na                5.000e-02   5.000e-02
	Zn                2.000e-04   2.000e-04

----------------------------Description of solution----------------------------

                                       pH  =   4.400    
                                       pe  =   4.000    
                        Activity of water  =   0.998
                 Ionic strength (mol/kgw)  =   5.042e-02
                       Mass of water (kg)  =   1.000e+00
                 Total alkalinity (eq/kg)  =   3.427e-04
                         Temperature (°C)  =  25.00
                  Electrical balance (eq)  =  -3.427e-04
 Percent error, 100*(Cat-|An|)/(Cat+|An|)  =  -0.34
                               Iterations  =   9
                                  Total H  = 1.110137e+02
                                  Total O  = 5.550683e+01

----------------------------Distribution of species----------------------------

                                               Log       Log       Log    mole V
   Species          Molality    Activity  Molality  Activity     Gamma   cm³/mol

   H+              4.851e-05   3.981e-05    -4.314    -4.400    -0.086      0.00
   OH-             3.114e-10   2.525e-10    -9.507    -9.598    -0.091     (0)  
   H2O             5.551e+01   9.983e-01     1.744    -0.001     0.000     18.07
Cl            5.000e-02
   Cl-             5.000e-02   4.104e-02    -1.301    -1.387    -0.086     (0)  
   ZnCl+           1.067e-07   8.703e-08    -6.972    -7.060    -0.088     (0)  
   ZnCl2           5.660e-09   5.660e-09    -8.247    -8.247     0.000     (0)  
   ZnCl3-          2.262e-10   1.845e-10    -9.646    -9.734    -0.088     (0)  
   ZnOHCl          2.877e-11   2.877e-11   -10.541   -10.541     0.000     (0)  
   ZnCl4-2         8.181e-12   3.786e-12   -11.087   -11.422    -0.335     (0)  
Edta          2.000e-04
   Zn(Edta)-2      1.932e-04   8.764e-05    -3.714    -4.057    -0.343     (0)  
   ZnH(Edta)-      4.859e-06   3.987e-06    -5.313    -5.399    -0.086     (0)  
   H2(Edta)-2      1.838e-06   6.400e-07    -5.736    -6.194    -0.458     (0)  
   H(Edta)-3       9.203e-08   8.574e-09    -7.036    -8.067    -1.031     (0)  
   H3(Edta)-       4.362e-08   3.351e-08    -7.360    -7.475    -0.115     (0)  
   H4(Edta)        1.928e-10   1.928e-10    -9.715    -9.715     0.000     (0)  
   ZnOH(Edta)-3    2.681e-11   4.529e-12   -10.572   -11.344    -0.772     (0)  
   Na(Edta)-3      5.359e-13   4.993e-14   -12.271   -13.302    -1.031     (0)  
   H5(Edta)+       3.160e-13   2.428e-13   -12.500   -12.615    -0.115     (0)  
   Edta-4          5.730e-14   2.428e-15   -13.242   -14.615    -1.373     (0)  
H(0)          2.218e-20
   H2              1.109e-20   1.122e-20   -19.955   -19.950     0.005     (0)  
Na            5.000e-02
   Na+             5.000e-02   4.104e-02    -1.301    -1.387    -0.086     (0)  
   Na(Edta)-3      5.359e-13   4.993e-14   -12.271   -13.302    -1.031     (0)  
O(0)          0.000e+00
   O2              0.000e+00   0.000e+00   -52.402   -52.397     0.005     (0)  
Zn            2.000e-04
   Zn(Edta)-2      1.932e-04   8.764e-05    -3.714    -4.057    -0.343     (0)  
   ZnH(Edta)-      4.859e-06   3.987e-06    -5.313    -5.399    -0.086     (0)  
   Zn+2            1.861e-06   8.443e-07    -5.730    -6.073    -0.343     (0)  
   ZnCl+           1.067e-07   8.703e-08    -6.972    -7.060    -0.088     (0)  
   ZnCl2           5.660e-09   5.660e-09    -8.247    -8.247     0.000     (0)  
   ZnCl3-          2.262e-10   1.845e-10    -9.646    -9.734    -0.088     (0)  
   ZnOHCl          2.877e-11   2.877e-11   -10.541   -10.541     0.000     (0)  
   ZnOH+           2.775e-11   2.132e-11   -10.557   -10.671    -0.115     (0)  
   ZnOH(Edta)-3    2.681e-11   4.529e-12   -10.572   -11.344    -0.772     (0)  
   ZnCl4-2         8.181e-12   3.786e-12   -11.087   -11.422    -0.335     (0)  
   Zn(OH)2         8.531e-16   8.531e-16   -15.069   -15.069     0.000     (0)  
   Zn(OH)3-        1.405e-21   1.080e-21   -20.852   -20.967    -0.115     (0)  
   Zn(OH)4-2       3.116e-29   1.085e-29   -28.506   -28.964    -0.458     (0)  

------------------------------Saturation indices-------------------------------

  Phase               SI** log IAP   log K(298 K,   1 atm)

  Halite           -4.38     -2.77    1.60  NaCl
  O2(g)           -49.49     33.60   83.09  O2
  Zincite          -8.61      2.73   11.33  ZnO
  Zn(OH)2          -9.47      2.73   12.20  Zn(OH)2
  Zn(OH)2(am)      -9.75      2.73   12.47  Zn(OH)2
  Zn(OH)2(beta)    -9.03      2.73   11.75  Zn(OH)2
  Zn(OH)2(epsilon)  -8.81      2.73   11.53  Zn(OH)2
  Zn(OH)2(gamma)   -9.01      2.73   11.73  Zn(OH)2
  Zn2(OH)3Cl      -15.53     -0.34   15.19  Zn2(OH)3Cl
  Zn5(OH)8Cl2     -36.45      2.05   38.50  Zn5(OH)8Cl2
  ZnCl2           -15.90     -8.85    7.05  ZnCl2
  Znmetal         -39.86    -14.07   25.79  Zn
  ZnO(active)      -8.46      2.73   11.19  ZnO

**For a gas, SI = log10(fugacity). Fugacity = pressure * phi / 1 atm.
  For ideal gases, phi = 1.

------------------
End of simulation.
------------------

-------------------------------------
Reading input data for simulation 11.
-------------------------------------

	SOLUTION 9
	pH		4.6
	Cl		0.05		mol/kgw
	Na		0.05		mol/kgw
	Zn	0.200 	mmol/kgw
	Edta  0.200 	mmol/kgw
	END
-------------------------------------------
Beginning of initial solution calculations.
-------------------------------------------

Initial solution 9.	

-----------------------------Solution composition------------------------------

	Elements           Molality       Moles

	Cl                5.000e-02   5.000e-02
	Edta              2.000e-04   2.000e-04
	Na                5.000e-02   5.000e-02
	Zn                2.000e-04   2.000e-04

----------------------------Description of solution----------------------------

                                       pH  =   4.600    
                                       pe  =   4.000    
                        Activity of water  =   0.998
                 Ionic strength (mol/kgw)  =   5.041e-02
                       Mass of water (kg)  =   1.000e+00
                 Total alkalinity (eq/kg)  =   3.638e-04
                         Temperature (°C)  =  25.00
                  Electrical balance (eq)  =  -3.638e-04
 Percent error, 100*(Cat-|An|)/(Cat+|An|)  =  -0.36
                               Iterations  =   9
                                  Total H  = 1.110137e+02
                                  Total O  = 5.550683e+01

----------------------------Distribution of species----------------------------

                                               Log       Log       Log    mole V
   Species          Molality    Activity  Molality  Activity     Gamma   cm³/mol

   H+              3.061e-05   2.512e-05    -4.514    -4.600    -0.086      0.00
   OH-             4.935e-10   4.002e-10    -9.307    -9.398    -0.091     (0)  
   H2O             5.551e+01   9.983e-01     1.744    -0.001     0.000     18.07
Cl            5.000e-02
   Cl-             5.000e-02   4.104e-02    -1.301    -1.387    -0.086     (0)  
   ZnCl+           6.838e-08   5.578e-08    -7.165    -7.253    -0.088     (0)  
   ZnCl2           3.628e-09   3.628e-09    -8.440    -8.440     0.000     (0)  
   ZnCl3-          1.450e-10   1.183e-10    -9.839    -9.927    -0.088     (0)  
   ZnOHCl          2.923e-11   2.923e-11   -10.534   -10.534     0.000     (0)  
   ZnCl4-2         5.244e-12   2.427e-12   -11.280   -11.615    -0.335     (0)  
Edta          2.000e-04
   Zn(Edta)-2      1.956e-04   8.876e-05    -3.709    -4.052    -0.343     (0)  
   ZnH(Edta)-      3.105e-06   2.548e-06    -5.508    -5.594    -0.086     (0)  
   H2(Edta)-2      1.156e-06   4.026e-07    -5.937    -6.395    -0.458     (0)  
   H(Edta)-3       9.173e-08   8.548e-09    -7.037    -8.068    -1.031     (0)  
   H3(Edta)-       1.731e-08   1.330e-08    -7.762    -7.876    -0.115     (0)  
   H4(Edta)        4.829e-11   4.829e-11   -10.316   -10.316     0.000     (0)  
   ZnOH(Edta)-3    4.302e-11   7.269e-12   -10.366   -11.139    -0.772     (0)  
   Na(Edta)-3      8.466e-13   7.889e-14   -12.072   -13.103    -1.031     (0)  
   Edta-4          9.052e-14   3.836e-15   -13.043   -14.416    -1.373     (0)  
   H5(Edta)+       4.993e-14   3.836e-14   -13.302   -13.416    -0.115     (0)  
H(0)          8.831e-21
   H2              4.415e-21   4.467e-21   -20.355   -20.350     0.005     (0)  
Na            5.000e-02
   Na+             5.000e-02   4.104e-02    -1.301    -1.387    -0.086     (0)  
   Na(Edta)-3      8.466e-13   7.889e-14   -12.072   -13.103    -1.031     (0)  
O(0)          0.000e+00
   O2              0.000e+00   0.000e+00   -51.602   -51.597     0.005     (0)  
Zn            2.000e-04
   Zn(Edta)-2      1.956e-04   8.876e-05    -3.709    -4.052    -0.343     (0)  
   ZnH(Edta)-      3.105e-06   2.548e-06    -5.508    -5.594    -0.086     (0)  
   Zn+2            1.193e-06   5.412e-07    -5.923    -6.267    -0.343     (0)  
   ZnCl+           6.838e-08   5.578e-08    -7.165    -7.253    -0.088     (0)  
   ZnCl2           3.628e-09   3.628e-09    -8.440    -8.440     0.000     (0)  
   ZnCl3-          1.450e-10   1.183e-10    -9.839    -9.927    -0.088     (0)  
   ZnOH(Edta)-3    4.302e-11   7.269e-12   -10.366   -11.139    -0.772     (0)  
   ZnOHCl          2.923e-11   2.923e-11   -10.534   -10.534     0.000     (0)  
   ZnOH+           2.819e-11   2.166e-11   -10.550   -10.664    -0.115     (0)  
   ZnCl4-2         5.244e-12   2.427e-12   -11.280   -11.615    -0.335     (0)  
   Zn(OH)2         1.374e-15   1.374e-15   -14.862   -14.862     0.000     (0)  
   Zn(OH)3-        3.586e-21   2.755e-21   -20.445   -20.560    -0.115     (0)  
   Zn(OH)4-2       1.260e-28   4.389e-29   -27.900   -28.358    -0.458     (0)  

------------------------------Saturation indices-------------------------------

  Phase               SI** log IAP   log K(298 K,   1 atm)

  Halite           -4.38     -2.77    1.60  NaCl
  O2(g)           -48.69     34.40   83.09  O2
  Zincite          -8.40      2.93   11.33  ZnO
  Zn(OH)2          -9.27      2.93   12.20  Zn(OH)2
  Zn(OH)2(am)      -9.54      2.93   12.47  Zn(OH)2
  Zn(OH)2(beta)    -8.82      2.93   11.75  Zn(OH)2
  Zn(OH)2(epsilon)  -8.60      2.93   11.53  Zn(OH)2
  Zn(OH)2(gamma)   -8.80      2.93   11.73  Zn(OH)2
  Zn2(OH)3Cl      -15.31     -0.12   15.19  Zn2(OH)3Cl
  Zn5(OH)8Cl2     -35.81      2.69   38.50  Zn5(OH)8Cl2
  ZnCl2           -16.09     -9.04    7.05  ZnCl2
  Znmetal         -40.06    -14.27   25.79  Zn
  ZnO(active)      -8.26      2.93   11.19  ZnO

**For a gas, SI = log10(fugacity). Fugacity = pressure * phi / 1 atm.
  For ideal gases, phi = 1.

------------------
End of simulation.
------------------

-------------------------------------
Reading input data for simulation 12.
-------------------------------------

	SOLUTION 10
	pH		4.8
	Cl		0.05		mol/kgw
	Na		0.05		mol/kgw
	Zn	0.200 	mmol/kgw
	Edta  0.200 	mmol/kgw
	END
-------------------------------------------
Beginning of initial solution calculations.
-------------------------------------------

Initial solution 10.	

-----------------------------Solution composition------------------------------

	Elements           Molality       Moles

	Cl                5.000e-02   5.000e-02
	Edta              2.000e-04   2.000e-04
	Na                5.000e-02   5.000e-02
	Zn                2.000e-04   2.000e-04

----------------------------Description of solution----------------------------

                                       pH  =   4.800    
                                       pe  =   4.000    
                        Activity of water  =   0.998
                 Ionic strength (mol/kgw)  =   5.041e-02
                       Mass of water (kg)  =   1.000e+00
                 Total alkalinity (eq/kg)  =   3.772e-04
                         Temperature (°C)  =  25.00
                  Electrical balance (eq)  =  -3.772e-04
 Percent error, 100*(Cat-|An|)/(Cat+|An|)  =  -0.38
                               Iterations  =   9
                                  Total H  = 1.110137e+02
                                  Total O  = 5.550683e+01

----------------------------Distribution of species----------------------------

                                               Log       Log       Log    mole V
   Species          Molality    Activity  Molality  Activity     Gamma   cm³/mol

   H+              1.931e-05   1.585e-05    -4.714    -4.800    -0.086      0.00
   OH-             7.821e-10   6.342e-10    -9.107    -9.198    -0.091     (0)  
   H2O             5.551e+01   9.983e-01     1.744    -0.001     0.000     18.07
Cl            5.000e-02
   Cl-             5.000e-02   4.104e-02    -1.301    -1.387    -0.086     (0)  
   ZnCl+           4.412e-08   3.599e-08    -7.355    -7.444    -0.088     (0)  
   ZnCl2           2.341e-09   2.341e-09    -8.631    -8.631     0.000     (0)  
   ZnCl3-          9.354e-11   7.631e-11   -10.029   -10.117    -0.088     (0)  
   ZnOHCl          2.989e-11   2.989e-11   -10.525   -10.525     0.000     (0)  
   ZnCl4-2         3.383e-12   1.566e-12   -11.471   -11.805    -0.335     (0)  
Edta          2.000e-04
   Zn(Edta)-2      1.972e-04   8.948e-05    -3.705    -4.048    -0.343     (0)  
   ZnH(Edta)-      1.975e-06   1.621e-06    -5.704    -5.790    -0.086     (0)  
   H2(Edta)-2      7.190e-07   2.504e-07    -6.143    -6.601    -0.458     (0)  
   H(Edta)-3       9.042e-08   8.427e-09    -7.044    -8.074    -1.031     (0)  
   H3(Edta)-       6.795e-09   5.220e-09    -8.168    -8.282    -0.115     (0)  
   ZnOH(Edta)-3    6.874e-11   1.161e-11   -10.163   -10.935    -0.772     (0)  
   H4(Edta)        1.196e-11   1.196e-11   -10.922   -10.922     0.000     (0)  
   Na(Edta)-3      1.323e-12   1.233e-13   -11.879   -12.909    -1.031     (0)  
   Edta-4          1.414e-13   5.993e-15   -12.850   -14.222    -1.373     (0)  
   H5(Edta)+       7.802e-15   5.993e-15   -14.108   -14.222    -0.115     (0)  
H(0)          3.516e-21
   H2              1.758e-21   1.778e-21   -20.755   -20.750     0.005     (0)  
Na            5.000e-02
   Na+             5.000e-02   4.104e-02    -1.301    -1.387    -0.086     (0)  
   Na(Edta)-3      1.323e-12   1.233e-13   -11.879   -12.909    -1.031     (0)  
O(0)          0.000e+00
   O2              0.000e+00   0.000e+00   -50.802   -50.797     0.005     (0)  
Zn            2.000e-04
   Zn(Edta)-2      1.972e-04   8.948e-05    -3.705    -4.048    -0.343     (0)  
   ZnH(Edta)-      1.975e-06   1.621e-06    -5.704    -5.790    -0.086     (0)  
   Zn+2            7.696e-07   3.492e-07    -6.114    -6.457    -0.343     (0)  
   ZnCl+           4.412e-08   3.599e-08    -7.355    -7.444    -0.088     (0)  
   ZnCl2           2.341e-09   2.341e-09    -8.631    -8.631     0.000     (0)  
   ZnCl3-          9.354e-11   7.631e-11   -10.029   -10.117    -0.088     (0)  
   ZnOH(Edta)-3    6.874e-11   1.161e-11   -10.163   -10.935    -0.772     (0)  
   ZnOHCl          2.989e-11   2.989e-11   -10.525   -10.525     0.000     (0)  
   ZnOH+           2.883e-11   2.215e-11   -10.540   -10.655    -0.115     (0)  
   ZnCl4-2         3.383e-12   1.566e-12   -11.471   -11.805    -0.335     (0)  
   Zn(OH)2         2.226e-15   2.226e-15   -14.652   -14.652     0.000     (0)  
   Zn(OH)3-        9.212e-21   7.077e-21   -20.036   -20.150    -0.115     (0)  
   Zn(OH)4-2       5.130e-28   1.787e-28   -27.290   -27.748    -0.458     (0)  

------------------------------Saturation indices-------------------------------

  Phase               SI** log IAP   log K(298 K,   1 atm)

  Halite           -4.38     -2.77    1.60  NaCl
  O2(g)           -47.89     35.20   83.09  O2
  Zincite          -8.19      3.14   11.33  ZnO
  Zn(OH)2          -9.06      3.14   12.20  Zn(OH)2
  Zn(OH)2(am)      -9.33      3.14   12.47  Zn(OH)2
  Zn(OH)2(beta)    -8.61      3.14   11.75  Zn(OH)2
  Zn(OH)2(epsilon)  -8.39      3.14   11.53  Zn(OH)2
  Zn(OH)2(gamma)   -8.59      3.14   11.73  Zn(OH)2
  Zn2(OH)3Cl      -15.09      0.10   15.19  Zn2(OH)3Cl
  Zn5(OH)8Cl2     -35.16      3.34   38.50  Zn5(OH)8Cl2
  ZnCl2           -16.28     -9.23    7.05  ZnCl2
  Znmetal         -40.25    -14.46   25.79  Zn
  ZnO(active)      -8.05      3.14   11.19  ZnO

**For a gas, SI = log10(fugacity). Fugacity = pressure * phi / 1 atm.
  For ideal gases, phi = 1.

------------------
End of simulation.
------------------

-------------------------------------
Reading input data for simulation 13.
-------------------------------------

	SOLUTION 11
	pH		5.0
	Cl		0.05		mol/kgw
	Na		0.05		mol/kgw
	Zn	0.200 	mmol/kgw
	Edta  0.200 	mmol/kgw
	END
-------------------------------------------
Beginning of initial solution calculations.
-------------------------------------------

Initial solution 11.	

-----------------------------Solution composition------------------------------

	Elements           Molality       Moles

	Cl                5.000e-02   5.000e-02
	Edta              2.000e-04   2.000e-04
	Na                5.000e-02   5.000e-02
	Zn                2.000e-04   2.000e-04

----------------------------Description of solution----------------------------

                                       pH  =   5.000    
                                       pe  =   4.000    
                        Activity of water  =   0.998
                 Ionic strength (mol/kgw)  =   5.041e-02
                       Mass of water (kg)  =   1.000e+00
                 Total alkalinity (eq/kg)  =   3.856e-04
                         Temperature (°C)  =  25.00
                  Electrical balance (eq)  =  -3.856e-04
 Percent error, 100*(Cat-|An|)/(Cat+|An|)  =  -0.38
                               Iterations  =   9
                                  Total H  = 1.110137e+02
                                  Total O  = 5.550683e+01

----------------------------Distribution of species----------------------------

                                               Log       Log       Log    mole V
   Species          Molality    Activity  Molality  Activity     Gamma   cm³/mol

   H+              1.218e-05   1.000e-05    -4.914    -5.000    -0.086      0.00
   OH-             1.240e-09   1.005e-09    -8.907    -8.998    -0.091     (0)  
   H2O             5.551e+01   9.983e-01     1.744    -0.001     0.000     18.07
Cl            5.000e-02
   Cl-             5.000e-02   4.104e-02    -1.301    -1.387    -0.086     (0)  
   ZnCl+           2.876e-08   2.346e-08    -7.541    -7.630    -0.088     (0)  
   ZnCl2           1.526e-09   1.526e-09    -8.817    -8.817     0.000     (0)  
   ZnCl3-          6.097e-11   4.973e-11   -10.215   -10.303    -0.088     (0)  
   ZnOHCl          3.087e-11   3.087e-11   -10.510   -10.510     0.000     (0)  
   ZnCl4-2         2.205e-12   1.021e-12   -11.657   -11.991    -0.335     (0)  
Edta          2.000e-04
   Zn(Edta)-2      1.982e-04   8.994e-05    -3.703    -4.046    -0.343     (0)  
   ZnH(Edta)-      1.252e-06   1.028e-06    -5.902    -5.988    -0.086     (0)  
   H2(Edta)-2      4.414e-07   1.537e-07    -6.355    -6.813    -0.458     (0)  
   H(Edta)-3       8.797e-08   8.200e-09    -7.056    -8.086    -1.031     (0)  
   H3(Edta)-       2.632e-09   2.022e-09    -8.580    -8.694    -0.115     (0)  
   ZnOH(Edta)-3    1.095e-10   1.850e-11    -9.961   -10.733    -0.772     (0)  
   H4(Edta)        2.923e-12   2.923e-12   -11.534   -11.534     0.000     (0)  
   Na(Edta)-3      2.039e-12   1.901e-13   -11.690   -12.721    -1.031     (0)  
   Edta-4          2.181e-13   9.243e-15   -12.661   -14.034    -1.373     (0)  
   H5(Edta)+       1.203e-15   9.243e-16   -14.920   -15.034    -0.115     (0)  
H(0)          1.400e-21
   H2              6.998e-22   7.079e-22   -21.155   -21.150     0.005     (0)  
Na            5.000e-02
   Na+             5.000e-02   4.104e-02    -1.301    -1.387    -0.086     (0)  
   Na(Edta)-3      2.039e-12   1.901e-13   -11.690   -12.721    -1.031     (0)  
O(0)          0.000e+00
   O2              0.000e+00   0.000e+00   -50.002   -49.997     0.005     (0)  
Zn            2.000e-04
   Zn(Edta)-2      1.982e-04   8.994e-05    -3.703    -4.046    -0.343     (0)  
   ZnH(Edta)-      1.252e-06   1.028e-06    -5.902    -5.988    -0.086     (0)  
   Zn+2            5.016e-07   2.276e-07    -6.300    -6.643    -0.343     (0)  
   ZnCl+           2.876e-08   2.346e-08    -7.541    -7.630    -0.088     (0)  
   ZnCl2           1.526e-09   1.526e-09    -8.817    -8.817     0.000     (0)  
   ZnOH(Edta)-3    1.095e-10   1.850e-11    -9.961   -10.733    -0.772     (0)  
   ZnCl3-          6.097e-11   4.973e-11   -10.215   -10.303    -0.088     (0)  
   ZnOHCl          3.087e-11   3.087e-11   -10.510   -10.510     0.000     (0)  
   ZnOH+           2.978e-11   2.288e-11   -10.526   -10.641    -0.115     (0)  
   ZnCl4-2         2.205e-12   1.021e-12   -11.657   -11.991    -0.335     (0)  
   Zn(OH)2         3.645e-15   3.645e-15   -14.438   -14.438     0.000     (0)  
   Zn(OH)3-        2.390e-20   1.836e-20   -19.622   -19.736    -0.115     (0)  
   Zn(OH)4-2       2.110e-27   7.348e-28   -26.676   -27.134    -0.458     (0)  

------------------------------Saturation indices-------------------------------

  Phase               SI** log IAP   log K(298 K,   1 atm)

  Halite           -4.38     -2.77    1.60  NaCl
  O2(g)           -47.09     36.00   83.09  O2
  Zincite          -7.98      3.36   11.33  ZnO
  Zn(OH)2          -8.84      3.36   12.20  Zn(OH)2
  Zn(OH)2(am)      -9.12      3.36   12.47  Zn(OH)2
  Zn(OH)2(beta)    -8.40      3.36   11.75  Zn(OH)2
  Zn(OH)2(epsilon)  -8.18      3.36   11.53  Zn(OH)2
  Zn(OH)2(gamma)   -8.38      3.36   11.73  Zn(OH)2
  Zn2(OH)3Cl      -14.87      0.33   15.19  Zn2(OH)3Cl
  Zn5(OH)8Cl2     -34.49      4.01   38.50  Zn5(OH)8Cl2
  ZnCl2           -16.47     -9.42    7.05  ZnCl2
  Znmetal         -40.43    -14.64   25.79  Zn
  ZnO(active)      -7.83      3.36   11.19  ZnO

**For a gas, SI = log10(fugacity). Fugacity = pressure * phi / 1 atm.
  For ideal gases, phi = 1.

------------------
End of simulation.
------------------

-------------------------------------
Reading input data for simulation 14.
-------------------------------------

	SOLUTION 12
	pH		5.2
	Cl		0.05		mol/kgw
	Na		0.05		mol/kgw
	Zn	0.200 	mmol/kgw
	Edta  0.200 	mmol/kgw
	END
-------------------------------------------
Beginning of initial solution calculations.
-------------------------------------------

Initial solution 12.	

-----------------------------Solution composition------------------------------

	Elements           Molality       Moles

	Cl                5.000e-02   5.000e-02
	Edta              2.000e-04   2.000e-04
	Na                5.000e-02   5.000e-02
	Zn                2.000e-04   2.000e-04

----------------------------Description of solution----------------------------

                                       pH  =   5.200    
                                       pe  =   4.000    
                        Activity of water  =   0.998
                 Ionic strength (mol/kgw)  =   5.040e-02
                       Mass of water (kg)  =   1.000e+00
                 Total alkalinity (eq/kg)  =   3.909e-04
                         Temperature (°C)  =  25.00
                  Electrical balance (eq)  =  -3.909e-04
 Percent error, 100*(Cat-|An|)/(Cat+|An|)  =  -0.39
                               Iterations  =  10
                                  Total H  = 1.110137e+02
                                  Total O  = 5.550683e+01

----------------------------Distribution of species----------------------------

                                               Log       Log       Log    mole V
   Species          Molality    Activity  Molality  Activity     Gamma   cm³/mol

   H+              7.688e-06   6.310e-06    -5.114    -5.200    -0.086      0.00
   OH-             1.965e-09   1.593e-09    -8.707    -8.798    -0.091     (0)  
   H2O             5.551e+01   9.983e-01     1.744    -0.001     0.000     18.07
Cl            5.000e-02
   Cl-             5.000e-02   4.104e-02    -1.301    -1.387    -0.086     (0)  
   ZnCl+           1.902e-08   1.551e-08    -7.721    -7.809    -0.088     (0)  
   ZnCl2           1.009e-09   1.009e-09    -8.996    -8.996     0.000     (0)  
   ZnCl3-          4.031e-11   3.289e-11   -10.395   -10.483    -0.088     (0)  
   ZnOHCl          3.236e-11   3.236e-11   -10.490   -10.490     0.000     (0)  
   ZnCl4-2         1.458e-12   6.748e-13   -11.836   -12.171    -0.335     (0)  
Edta          2.000e-04
   Zn(Edta)-2      1.989e-04   9.023e-05    -3.701    -4.045    -0.343     (0)  
   ZnH(Edta)-      7.928e-07   6.506e-07    -6.101    -6.187    -0.086     (0)  
   H2(Edta)-2      2.666e-07   9.286e-08    -6.574    -7.032    -0.458     (0)  
   H(Edta)-3       8.421e-08   7.849e-09    -7.075    -8.105    -1.031     (0)  
   H3(Edta)-       1.003e-09   7.706e-10    -8.999    -9.113    -0.115     (0)  
   ZnOH(Edta)-3    1.741e-10   2.942e-11    -9.759   -10.531    -0.772     (0)  
   Na(Edta)-3      3.094e-12   2.884e-13   -11.509   -12.540    -1.031     (0)  
   H4(Edta)        7.028e-13   7.028e-13   -12.153   -12.153     0.000     (0)  
   Edta-4          3.308e-13   1.402e-14   -12.480   -13.853    -1.373     (0)  
   H5(Edta)+       1.825e-16   1.402e-16   -15.739   -15.853    -0.115     (0)  
H(0)          5.572e-22
   H2              2.786e-22   2.818e-22   -21.555   -21.550     0.005     (0)  
Na            5.000e-02
   Na+             5.000e-02   4.104e-02    -1.301    -1.387    -0.086     (0)  
   Na(Edta)-3      3.094e-12   2.884e-13   -11.509   -12.540    -1.031     (0)  
O(0)          0.000e+00
   O2              0.000e+00   0.000e+00   -49.202   -49.197     0.005     (0)  
Zn            2.000e-04
   Zn(Edta)-2      1.989e-04   9.023e-05    -3.701    -4.045    -0.343     (0)  
   ZnH(Edta)-      7.928e-07   6.506e-07    -6.101    -6.187    -0.086     (0)  
   Zn+2            3.317e-07   1.505e-07    -6.479    -6.822    -0.343     (0)  
   ZnCl+           1.902e-08   1.551e-08    -7.721    -7.809    -0.088     (0)  
   ZnCl2           1.009e-09   1.009e-09    -8.996    -8.996     0.000     (0)  
   ZnOH(Edta)-3    1.741e-10   2.942e-11    -9.759   -10.531    -0.772     (0)  
   ZnCl3-          4.031e-11   3.289e-11   -10.395   -10.483    -0.088     (0)  
   ZnOHCl          3.236e-11   3.236e-11   -10.490   -10.490     0.000     (0)  
   ZnOH+           3.121e-11   2.398e-11   -10.506   -10.620    -0.115     (0)  
   ZnCl4-2         1.458e-12   6.748e-13   -11.836   -12.171    -0.335     (0)  
   Zn(OH)2         6.054e-15   6.054e-15   -14.218   -14.218     0.000     (0)  
   Zn(OH)3-        6.292e-20   4.834e-20   -19.201   -19.316    -0.115     (0)  
   Zn(OH)4-2       8.802e-27   3.066e-27   -26.055   -26.513    -0.458     (0)  

------------------------------Saturation indices-------------------------------

  Phase               SI** log IAP   log K(298 K,   1 atm)

  Halite           -4.38     -2.77    1.60  NaCl
  O2(g)           -46.29     36.80   83.09  O2
  Zincite          -7.76      3.58   11.33  ZnO
  Zn(OH)2          -8.62      3.58   12.20  Zn(OH)2
  Zn(OH)2(am)      -8.90      3.58   12.47  Zn(OH)2
  Zn(OH)2(beta)    -8.18      3.58   11.75  Zn(OH)2
  Zn(OH)2(epsilon)  -7.96      3.58   11.53  Zn(OH)2
  Zn(OH)2(gamma)   -8.16      3.58   11.73  Zn(OH)2
  Zn2(OH)3Cl      -14.63      0.57   15.19  Zn2(OH)3Cl
  Zn5(OH)8Cl2     -33.79      4.71   38.50  Zn5(OH)8Cl2
  ZnCl2           -16.65     -9.60    7.05  ZnCl2
  Znmetal         -40.61    -14.82   25.79  Zn
  ZnO(active)      -7.61      3.58   11.19  ZnO

**For a gas, SI = log10(fugacity). Fugacity = pressure * phi / 1 atm.
  For ideal gases, phi = 1.

------------------
End of simulation.
------------------

-------------------------------------
Reading input data for simulation 15.
-------------------------------------

	SOLUTION 13
	pH		5.4
	Cl		0.05		mol/kgw
	Na		0.05		mol/kgw
	Zn	0.200 	mmol/kgw
	Edta  0.200 	mmol/kgw
	END
-------------------------------------------
Beginning of initial solution calculations.
-------------------------------------------

Initial solution 13.	

-----------------------------Solution composition------------------------------

	Elements           Molality       Moles

	Cl                5.000e-02   5.000e-02
	Edta              2.000e-04   2.000e-04
	Na                5.000e-02   5.000e-02
	Zn                2.000e-04   2.000e-04

----------------------------Description of solution----------------------------

                                       pH  =   5.400    
                                       pe  =   4.000    
                        Activity of water  =   0.998
                 Ionic strength (mol/kgw)  =   5.040e-02
                       Mass of water (kg)  =   1.000e+00
                 Total alkalinity (eq/kg)  =   3.943e-04
                         Temperature (°C)  =  25.00
                  Electrical balance (eq)  =  -3.943e-04
 Percent error, 100*(Cat-|An|)/(Cat+|An|)  =  -0.39
                               Iterations  =   9
                                  Total H  = 1.110137e+02
                                  Total O  = 5.550683e+01

----------------------------Distribution of species----------------------------

                                               Log       Log       Log    mole V
   Species          Molality    Activity  Molality  Activity     Gamma   cm³/mol

   H+              4.851e-06   3.981e-06    -5.314    -5.400    -0.086      0.00
   OH-             3.114e-09   2.525e-09    -8.507    -8.598    -0.091     (0)  
   H2O             5.551e+01   9.983e-01     1.744    -0.001     0.000     18.07
Cl            5.000e-02
   Cl-             5.000e-02   4.104e-02    -1.301    -1.387    -0.086     (0)  
   ZnCl+           1.282e-08   1.046e-08    -7.892    -7.981    -0.088     (0)  
   ZnCl2           6.800e-10   6.800e-10    -9.167    -9.167     0.000     (0)  
   ZnOHCl          3.456e-11   3.456e-11   -10.461   -10.461     0.000     (0)  
   ZnCl3-          2.717e-11   2.217e-11   -10.566   -10.654    -0.088     (0)  
   ZnCl4-2         9.829e-13   4.549e-13   -12.007   -12.342    -0.335     (0)  
Edta          2.000e-04
   Zn(Edta)-2      1.993e-04   9.041e-05    -3.701    -4.044    -0.343     (0)  
   ZnH(Edta)-      5.012e-07   4.114e-07    -6.300    -6.386    -0.086     (0)  
   H2(Edta)-2      1.578e-07   5.496e-08    -6.802    -7.260    -0.458     (0)  
   H(Edta)-3       7.899e-08   7.363e-09    -7.102    -8.133    -1.031     (0)  
   H3(Edta)-       3.746e-10   2.878e-10    -9.426    -9.541    -0.115     (0)  
   ZnOH(Edta)-3    2.765e-10   4.672e-11    -9.558   -10.331    -0.772     (0)  
   Na(Edta)-3      4.600e-12   4.288e-13   -11.337   -12.368    -1.031     (0)  
   Edta-4          4.918e-13   2.085e-14   -12.308   -13.681    -1.373     (0)  
   H4(Edta)        1.656e-13   1.656e-13   -12.781   -12.781     0.000     (0)  
   H5(Edta)+       2.714e-17   2.085e-17   -16.566   -16.681    -0.115     (0)  
H(0)          2.218e-22
   H2              1.109e-22   1.122e-22   -21.955   -21.950     0.005     (0)  
Na            5.000e-02
   Na+             5.000e-02   4.104e-02    -1.301    -1.387    -0.086     (0)  
   Na(Edta)-3      4.600e-12   4.288e-13   -11.337   -12.368    -1.031     (0)  
O(0)          0.000e+00
   O2              0.000e+00   0.000e+00   -48.402   -48.397     0.005     (0)  
Zn            2.000e-04
   Zn(Edta)-2      1.993e-04   9.041e-05    -3.701    -4.044    -0.343     (0)  
   ZnH(Edta)-      5.012e-07   4.114e-07    -6.300    -6.386    -0.086     (0)  
   Zn+2            2.236e-07   1.014e-07    -6.651    -6.994    -0.343     (0)  
   ZnCl+           1.282e-08   1.046e-08    -7.892    -7.981    -0.088     (0)  
   ZnCl2           6.800e-10   6.800e-10    -9.167    -9.167     0.000     (0)  
   ZnOH(Edta)-3    2.765e-10   4.672e-11    -9.558   -10.331    -0.772     (0)  
   ZnOHCl          3.456e-11   3.456e-11   -10.461   -10.461     0.000     (0)  
   ZnOH+           3.334e-11   2.561e-11   -10.477   -10.592    -0.115     (0)  
   ZnCl3-          2.717e-11   2.217e-11   -10.566   -10.654    -0.088     (0)  
   ZnCl4-2         9.829e-13   4.549e-13   -12.007   -12.342    -0.335     (0)  
   Zn(OH)2         1.025e-14   1.025e-14   -13.989   -13.989     0.000     (0)  
   Zn(OH)3-        1.688e-19   1.297e-19   -18.773   -18.887    -0.115     (0)  
   Zn(OH)4-2       3.743e-26   1.304e-26   -25.427   -25.885    -0.458     (0)  

------------------------------Saturation indices-------------------------------

  Phase               SI** log IAP   log K(298 K,   1 atm)

  Halite           -4.38     -2.77    1.60  NaCl
  O2(g)           -45.49     37.60   83.09  O2
  Zincite          -7.53      3.81   11.33  ZnO
  Zn(OH)2          -8.40      3.80   12.20  Zn(OH)2
  Zn(OH)2(am)      -8.67      3.80   12.47  Zn(OH)2
  Zn(OH)2(beta)    -7.95      3.80   11.75  Zn(OH)2
  Zn(OH)2(epsilon)  -7.73      3.80   11.53  Zn(OH)2
  Zn(OH)2(gamma)   -7.93      3.80   11.73  Zn(OH)2
  Zn2(OH)3Cl      -14.37      0.82   15.19  Zn2(OH)3Cl
  Zn5(OH)8Cl2     -33.05      5.45   38.50  Zn5(OH)8Cl2
  ZnCl2           -16.82     -9.77    7.05  ZnCl2
  Znmetal         -40.78    -14.99   25.79  Zn
  ZnO(active)      -7.38      3.81   11.19  ZnO

**For a gas, SI = log10(fugacity). Fugacity = pressure * phi / 1 atm.
  For ideal gases, phi = 1.

------------------
End of simulation.
------------------

-------------------------------------
Reading input data for simulation 16.
-------------------------------------

	SOLUTION 14
	pH		5.6
	Cl		0.05		mol/kgw
	Na		0.05		mol/kgw
	Zn	0.200 	mmol/kgw
	Edta  0.200 	mmol/kgw
	END
-------------------------------------------
Beginning of initial solution calculations.
-------------------------------------------

Initial solution 14.	

-----------------------------Solution composition------------------------------

	Elements           Molality       Moles

	Cl                5.000e-02   5.000e-02
	Edta              2.000e-04   2.000e-04
	Na                5.000e-02   5.000e-02
	Zn                2.000e-04   2.000e-04

----------------------------Description of solution----------------------------

                                       pH  =   5.600    
                                       pe  =   4.000    
                        Activity of water  =   0.998
                 Ionic strength (mol/kgw)  =   5.040e-02
                       Mass of water (kg)  =   1.000e+00
                 Total alkalinity (eq/kg)  =   3.964e-04
                         Temperature (°C)  =  25.00
                  Electrical balance (eq)  =  -3.964e-04
 Percent error, 100*(Cat-|An|)/(Cat+|An|)  =  -0.39
                               Iterations  =   9
                                  Total H  = 1.110137e+02
                                  Total O  = 5.550683e+01

----------------------------Distribution of species----------------------------

                                               Log       Log       Log    mole V
   Species          Molality    Activity  Molality  Activity     Gamma   cm³/mol

   H+              3.061e-06   2.512e-06    -5.514    -5.600    -0.086      0.00
   OH-             4.935e-09   4.002e-09    -8.307    -8.398    -0.091     (0)  
   H2O             5.551e+01   9.983e-01     1.744    -0.001     0.000     18.07
Cl            5.000e-02
   Cl-             5.000e-02   4.104e-02    -1.301    -1.387    -0.086     (0)  
   ZnCl+           8.843e-09   7.214e-09    -8.053    -8.142    -0.088     (0)  
   ZnCl2           4.692e-10   4.692e-10    -9.329    -9.329     0.000     (0)  
   ZnOHCl          3.779e-11   3.779e-11   -10.423   -10.423     0.000     (0)  
   ZnCl3-          1.875e-11   1.529e-11   -10.727   -10.815    -0.088     (0)  
   ZnCl4-2         6.781e-13   3.138e-13   -12.169   -12.503    -0.335     (0)  
Edta          2.000e-04
   Zn(Edta)-2      1.995e-04   9.053e-05    -3.700    -4.043    -0.343     (0)  
   ZnH(Edta)-      3.167e-07   2.599e-07    -6.499    -6.585    -0.086     (0)  
   H2(Edta)-2      9.116e-08   3.175e-08    -7.040    -7.498    -0.458     (0)  
   H(Edta)-3       7.233e-08   6.742e-09    -7.141    -8.171    -1.031     (0)  
   ZnOH(Edta)-3    4.388e-10   7.414e-11    -9.358   -10.130    -0.772     (0)  
   H3(Edta)-       1.366e-10   1.049e-10    -9.865    -9.979    -0.115     (0)  
   Na(Edta)-3      6.676e-12   6.223e-13   -11.176   -12.206    -1.031     (0)  
   Edta-4          7.138e-13   3.026e-14   -12.146   -13.519    -1.373     (0)  
   H4(Edta)        3.809e-14   3.809e-14   -13.419   -13.419     0.000     (0)  
   H5(Edta)+       3.938e-18   3.026e-18   -17.405   -17.519    -0.115     (0)  
H(0)          8.831e-23
   H2              4.415e-23   4.467e-23   -22.355   -22.350     0.005     (0)  
Na            5.000e-02
   Na+             5.000e-02   4.104e-02    -1.301    -1.387    -0.086     (0)  
   Na(Edta)-3      6.676e-12   6.223e-13   -11.176   -12.206    -1.031     (0)  
O(0)          0.000e+00
   O2              0.000e+00   0.000e+00   -47.602   -47.597     0.005     (0)  
Zn            2.000e-04
   Zn(Edta)-2      1.995e-04   9.053e-05    -3.700    -4.043    -0.343     (0)  
   ZnH(Edta)-      3.167e-07   2.599e-07    -6.499    -6.585    -0.086     (0)  
   Zn+2            1.542e-07   6.998e-08    -6.812    -7.155    -0.343     (0)  
   ZnCl+           8.843e-09   7.214e-09    -8.053    -8.142    -0.088     (0)  
   ZnCl2           4.692e-10   4.692e-10    -9.329    -9.329     0.000     (0)  
   ZnOH(Edta)-3    4.388e-10   7.414e-11    -9.358   -10.130    -0.772     (0)  
   ZnOHCl          3.779e-11   3.779e-11   -10.423   -10.423     0.000     (0)  
   ZnOH+           3.645e-11   2.801e-11   -10.438   -10.553    -0.115     (0)  
   ZnCl3-          1.875e-11   1.529e-11   -10.727   -10.815    -0.088     (0)  
   ZnCl4-2         6.781e-13   3.138e-13   -12.169   -12.503    -0.335     (0)  
   Zn(OH)2         1.776e-14   1.776e-14   -13.750   -13.750     0.000     (0)  
   Zn(OH)3-        4.637e-19   3.563e-19   -18.334   -18.448    -0.115     (0)  
   Zn(OH)4-2       1.629e-25   5.676e-26   -24.788   -25.246    -0.458     (0)  

------------------------------Saturation indices-------------------------------

  Phase               SI** log IAP   log K(298 K,   1 atm)

  Halite           -4.38     -2.77    1.60  NaCl
  O2(g)           -44.69     38.40   83.09  O2
[...]
   H3(Edta)-       1.502e-19   1.154e-19   -18.823   -18.938    -0.115     (0)  
   H4(Edta)        6.638e-27   6.638e-27   -26.178   -26.178     0.000     (0)  
   H5(Edta)+       1.088e-34   8.357e-35   -33.963   -34.078    -0.115     (0)  
H(0)          2.218e-30
   H2              1.109e-30   1.122e-30   -29.955   -29.950     0.005     (0)  
Na            5.000e-02
   Na+             5.000e-02   4.104e-02    -1.301    -1.387    -0.086     (0)  
   Na(Edta)-3      1.845e-09   1.719e-10    -8.734    -9.765    -1.031     (0)  
O(0)          7.933e-33
   O2              3.966e-33   4.013e-33   -32.402   -32.397     0.005     (0)  
Zn            2.000e-04
   Zn(Edta)-2      1.973e-04   8.949e-05    -3.705    -4.048    -0.343     (0)  
   ZnOH(Edta)-3    2.737e-06   4.624e-07    -5.563    -6.335    -0.772     (0)  
   Zn(OH)2         2.531e-09   2.531e-09    -8.597    -8.597     0.000     (0)  
   ZnOHCl          8.534e-10   8.534e-10    -9.069    -9.069     0.000     (0)  
   ZnOH+           8.232e-10   6.324e-10    -9.084    -9.199    -0.115     (0)  
   Zn+2            5.520e-10   2.505e-10    -9.258    -9.601    -0.343     (0)  
   Zn(OH)3-        4.169e-10   3.203e-10    -9.380    -9.494    -0.115     (0)  
   ZnH(Edta)-      4.961e-11   4.072e-11   -10.304   -10.390    -0.086     (0)  
   ZnCl+           3.165e-11   2.582e-11   -10.500   -10.588    -0.088     (0)  
   ZnCl2           1.679e-12   1.679e-12   -11.775   -11.775     0.000     (0)  
   Zn(OH)4-2       9.244e-13   3.219e-13   -12.034   -12.492    -0.458     (0)  
   ZnCl3-          6.709e-14   5.473e-14   -13.173   -13.262    -0.088     (0)  
   ZnCl4-2         2.427e-15   1.123e-15   -14.615   -14.950    -0.335     (0)  

------------------------------Saturation indices-------------------------------

  Phase               SI** log IAP   log K(298 K,   1 atm)

  Halite           -4.38     -2.77    1.60  NaCl
  O2(g)           -29.49     53.60   83.09  O2
  Zincite          -2.14      9.20   11.33  ZnO
  Zn(OH)2          -3.00      9.20   12.20  Zn(OH)2
  Zn(OH)2(am)      -3.28      9.20   12.47  Zn(OH)2
  Zn(OH)2(beta)    -2.56      9.20   11.75  Zn(OH)2
  Zn(OH)2(epsilon)  -2.34      9.20   11.53  Zn(OH)2
  Zn(OH)2(gamma)   -2.54      9.20   11.73  Zn(OH)2
  Zn2(OH)3Cl       -7.58      7.61   15.19  Zn2(OH)3Cl
  Zn5(OH)8Cl2     -14.09     24.41   38.50  Zn5(OH)8Cl2
  ZnCl2           -19.42    -12.37    7.05  ZnCl2
  Znmetal         -43.39    -17.60   25.79  Zn
  ZnO(active)      -1.99      9.20   11.19  ZnO

**For a gas, SI = log10(fugacity). Fugacity = pressure * phi / 1 atm.
  For ideal gases, phi = 1.

------------------
End of simulation.
------------------

-------------------------------------
Reading input data for simulation 36.
-------------------------------------

	SOLUTION 34
	pH		9.6
	Cl		0.05		mol/kgw
	Na		0.05		mol/kgw
	Zn	0.200 	mmol/kgw
	Edta  0.200 	mmol/kgw
	END
-------------------------------------------
Beginning of initial solution calculations.
-------------------------------------------

Initial solution 34.	

-----------------------------Solution composition------------------------------

	Elements           Molality       Moles

	Cl                5.000e-02   5.000e-02
	Edta              2.000e-04   2.000e-04
	Na                5.000e-02   5.000e-02
	Zn                2.000e-04   2.000e-04

----------------------------Description of solution----------------------------

                                       pH  =   9.600    
                                       pe  =   4.000    
                        Activity of water  =   0.998
                 Ionic strength (mol/kgw)  =   5.044e-02
                       Mass of water (kg)  =   1.000e+00
                 Total alkalinity (eq/kg)  =   4.537e-04
                         Temperature (°C)  =  25.00
                  Electrical balance (eq)  =  -4.537e-04
 Percent error, 100*(Cat-|An|)/(Cat+|An|)  =  -0.45
                               Iterations  =   7
                                  Total H  = 1.110137e+02
                                  Total O  = 5.550689e+01

----------------------------Distribution of species----------------------------

                                               Log       Log       Log    mole V
   Species          Molality    Activity  Molality  Activity     Gamma   cm³/mol

   OH-             4.935e-05   4.002e-05    -4.307    -4.398    -0.091     (0)  
   H+              3.061e-10   2.512e-10    -9.514    -9.600    -0.086      0.00
   H2O             5.551e+01   9.983e-01     1.744    -0.001     0.000     18.07
Cl            5.000e-02
   Cl-             5.000e-02   4.103e-02    -1.301    -1.387    -0.086     (0)  
   ZnOHCl          8.069e-10   8.069e-10    -9.093    -9.093     0.000     (0)  
   ZnCl+           1.888e-11   1.540e-11   -10.724   -10.812    -0.088     (0)  
   ZnCl2           1.002e-12   1.002e-12   -11.999   -11.999     0.000     (0)  
   ZnCl3-          4.002e-14   3.265e-14   -13.398   -13.486    -0.088     (0)  
   ZnCl4-2         1.448e-15   6.699e-16   -14.839   -15.174    -0.335     (0)  
Edta          2.000e-04
   Zn(Edta)-2      1.957e-04   8.878e-05    -3.708    -4.052    -0.343     (0)  
   ZnOH(Edta)-3    4.304e-06   7.270e-07    -5.366    -6.138    -0.772     (0)  
   H(Edta)-3       3.325e-09   3.096e-10    -8.478    -9.509    -1.031     (0)  
   Na(Edta)-3      3.068e-09   2.858e-10    -8.513    -9.544    -1.031     (0)  
   Edta-4          3.281e-10   1.390e-11    -9.484   -10.857    -1.373     (0)  
   ZnH(Edta)-      3.105e-11   2.549e-11   -10.508   -10.594    -0.086     (0)  
   H2(Edta)-2      4.188e-13   1.458e-13   -12.378   -12.836    -0.458     (0)  
   H3(Edta)-       6.272e-20   4.818e-20   -19.203   -19.317    -0.115     (0)  
   H4(Edta)        1.749e-27   1.749e-27   -26.757   -26.757     0.000     (0)  
   H5(Edta)+       1.809e-35   1.390e-35   -34.743   -34.857    -0.115     (0)  
H(0)          8.831e-31
   H2              4.415e-31   4.467e-31   -30.355   -30.350     0.005     (0)  
Na            5.000e-02
   Na+             5.000e-02   4.103e-02    -1.301    -1.387    -0.086     (0)  
   Na(Edta)-3      3.068e-09   2.858e-10    -8.513    -9.544    -1.031     (0)  
O(0)          5.005e-32
   O2              2.503e-32   2.532e-32   -31.602   -31.597     0.005     (0)  
Zn            2.000e-04
   Zn(Edta)-2      1.957e-04   8.878e-05    -3.708    -4.052    -0.343     (0)  
   ZnOH(Edta)-3    4.304e-06   7.270e-07    -5.366    -6.138    -0.772     (0)  
   Zn(OH)2         3.793e-09   3.793e-09    -8.421    -8.421     0.000     (0)  
   Zn(OH)3-        9.903e-10   7.607e-10    -9.004    -9.119    -0.115     (0)  
   ZnOHCl          8.069e-10   8.069e-10    -9.093    -9.093     0.000     (0)  
   ZnOH+           7.785e-10   5.980e-10    -9.109    -9.223    -0.115     (0)  
   Zn+2            3.294e-10   1.494e-10    -9.482    -9.826    -0.343     (0)  
   ZnH(Edta)-      3.105e-11   2.549e-11   -10.508   -10.594    -0.086     (0)  
   ZnCl+           1.888e-11   1.540e-11   -10.724   -10.812    -0.088     (0)  
   Zn(OH)4-2       3.480e-12   1.212e-12   -11.458   -11.917    -0.458     (0)  
   ZnCl2           1.002e-12   1.002e-12   -11.999   -11.999     0.000     (0)  
   ZnCl3-          4.002e-14   3.265e-14   -13.398   -13.486    -0.088     (0)  
   ZnCl4-2         1.448e-15   6.699e-16   -14.839   -15.174    -0.335     (0)  

------------------------------Saturation indices-------------------------------

  Phase               SI** log IAP   log K(298 K,   1 atm)

  Halite           -4.38     -2.77    1.60  NaCl
  O2(g)           -28.69     54.40   83.09  O2
  Zincite          -1.96      9.37   11.33  ZnO
  Zn(OH)2          -2.83      9.37   12.20  Zn(OH)2
  Zn(OH)2(am)      -3.10      9.37   12.47  Zn(OH)2
  Zn(OH)2(beta)    -2.38      9.37   11.75  Zn(OH)2
  Zn(OH)2(epsilon)  -2.16      9.37   11.53  Zn(OH)2
  Zn(OH)2(gamma)   -2.36      9.37   11.73  Zn(OH)2
  Zn2(OH)3Cl       -7.43      7.76   15.19  Zn2(OH)3Cl
  Zn5(OH)8Cl2     -13.61     24.89   38.50  Zn5(OH)8Cl2
  ZnCl2           -19.65    -12.60    7.05  ZnCl2
  Znmetal         -43.61    -17.83   25.79  Zn
  ZnO(active)      -1.81      9.37   11.19  ZnO

**For a gas, SI = log10(fugacity). Fugacity = pressure * phi / 1 atm.
  For ideal gases, phi = 1.

------------------
End of simulation.
------------------

-------------------------------------
Reading input data for simulation 37.
-------------------------------------

	SOLUTION 35
	pH		9.8
	Cl		0.05		mol/kgw
	Na		0.05		mol/kgw
	Zn	0.200 	mmol/kgw
	Edta  0.200 	mmol/kgw
	END
-------------------------------------------
Beginning of initial solution calculations.
-------------------------------------------

Initial solution 35.	

-----------------------------Solution composition------------------------------

	Elements           Molality       Moles

	Cl                5.000e-02   5.000e-02
	Edta              2.000e-04   2.000e-04
	Na                5.000e-02   5.000e-02
	Zn                2.000e-04   2.000e-04

----------------------------Description of solution----------------------------

                                       pH  =   9.800    
                                       pe  =   4.000    
                        Activity of water  =   0.998
                 Ionic strength (mol/kgw)  =   5.046e-02
                       Mass of water (kg)  =   1.000e+00
                 Total alkalinity (eq/kg)  =   4.850e-04
                         Temperature (°C)  =  25.00
                  Electrical balance (eq)  =  -4.850e-04
 Percent error, 100*(Cat-|An|)/(Cat+|An|)  =  -0.48
                               Iterations  =   9
                                  Total H  = 1.110138e+02
                                  Total O  = 5.550692e+01

----------------------------Distribution of species----------------------------

                                               Log       Log       Log    mole V
   Species          Molality    Activity  Molality  Activity     Gamma   cm³/mol

   OH-             7.822e-05   6.342e-05    -4.107    -4.198    -0.091     (0)  
   H+              1.931e-10   1.585e-10    -9.714    -9.800    -0.086      0.00
   H2O             5.551e+01   9.983e-01     1.744    -0.001     0.000     18.07
Cl            5.000e-02
   Cl-             5.000e-02   4.103e-02    -1.301    -1.387    -0.086     (0)  
   ZnOHCl          7.368e-10   7.368e-10    -9.133    -9.133     0.000     (0)  
   ZnCl+           1.088e-11   8.873e-12   -10.963   -11.052    -0.088     (0)  
   ZnCl2           5.770e-13   5.770e-13   -12.239   -12.239     0.000     (0)  
   ZnCl3-          2.306e-14   1.881e-14   -13.637   -13.726    -0.088     (0)  
   ZnCl4-2         8.341e-16   3.859e-16   -15.079   -15.414    -0.335     (0)  
Edta          2.000e-04
   Zn(Edta)-2      1.933e-04   8.766e-05    -3.714    -4.057    -0.343     (0)  
   ZnOH(Edta)-3    6.738e-06   1.138e-06    -5.171    -5.944    -0.772     (0)  
   Na(Edta)-3      5.261e-09   4.898e-10    -8.279    -9.310    -1.031     (0)  
   H(Edta)-3       3.597e-09   3.349e-10    -8.444    -9.475    -1.031     (0)  
   Edta-4          5.625e-10   2.382e-11    -9.250   -10.623    -1.373     (0)  
   ZnH(Edta)-      1.935e-11   1.588e-11   -10.713   -10.799    -0.086     (0)  
   H2(Edta)-2      2.858e-13   9.951e-14   -12.544   -13.002    -0.458     (0)  
   H3(Edta)-       2.700e-20   2.074e-20   -19.569   -19.683    -0.115     (0)  
   H4(Edta)        4.752e-28   4.752e-28   -27.323   -27.323     0.000     (0)  
   H5(Edta)+       3.101e-36   2.382e-36   -35.509   -35.623    -0.115     (0)  
H(0)          3.515e-31
   H2              1.758e-31   1.778e-31   -30.755   -30.750     0.005     (0)  
Na            5.000e-02
   Na+             5.000e-02   4.103e-02    -1.301    -1.387    -0.086     (0)  
   Na(Edta)-3      5.261e-09   4.898e-10    -8.279    -9.310    -1.031     (0)  
O(0)          3.158e-31
   O2              1.579e-31   1.598e-31   -30.802   -30.797     0.005     (0)  
Zn            2.000e-04
   Zn(Edta)-2      1.933e-04   8.766e-05    -3.714    -4.057    -0.343     (0)  
   ZnOH(Edta)-3    6.738e-06   1.138e-06    -5.171    -5.944    -0.772     (0)  
   Zn(OH)2         5.488e-09   5.488e-09    -8.261    -8.261     0.000     (0)  
   Zn(OH)3-        2.271e-09   1.745e-09    -8.644    -8.758    -0.115     (0)  
   ZnOHCl          7.368e-10   7.368e-10    -9.133    -9.133     0.000     (0)  
   ZnOH+           7.108e-10   5.460e-10    -9.148    -9.263    -0.115     (0)  
   Zn+2            1.898e-10   8.609e-11    -9.722   -10.065    -0.343     (0)  
   ZnH(Edta)-      1.935e-11   1.588e-11   -10.713   -10.799    -0.086     (0)  
   Zn(OH)4-2       1.265e-11   4.405e-12   -10.898   -11.356    -0.458     (0)  
   ZnCl+           1.088e-11   8.873e-12   -10.963   -11.052    -0.088     (0)  
   ZnCl2           5.770e-13   5.770e-13   -12.239   -12.239     0.000     (0)  
   ZnCl3-          2.306e-14   1.881e-14   -13.637   -13.726    -0.088     (0)  
   ZnCl4-2         8.341e-16   3.859e-16   -15.079   -15.414    -0.335     (0)  

------------------------------Saturation indices-------------------------------

  Phase               SI** log IAP   log K(298 K,   1 atm)

  Halite           -4.38     -2.77    1.60  NaCl
  O2(g)           -27.89     55.20   83.09  O2
  Zincite          -1.80      9.53   11.33  ZnO
  Zn(OH)2          -2.67      9.53   12.20  Zn(OH)2
  Zn(OH)2(am)      -2.94      9.53   12.47  Zn(OH)2
  Zn(OH)2(beta)    -2.22      9.53   11.75  Zn(OH)2
  Zn(OH)2(epsilon)  -2.00      9.53   11.53  Zn(OH)2
  Zn(OH)2(gamma)   -2.20      9.53   11.73  Zn(OH)2
  Zn2(OH)3Cl       -7.31      7.88   15.19  Zn2(OH)3Cl
  Zn5(OH)8Cl2     -13.21     25.29   38.50  Zn5(OH)8Cl2
  ZnCl2           -19.89    -12.84    7.05  ZnCl2
  Znmetal         -43.85    -18.07   25.79  Zn
  ZnO(active)      -1.65      9.53   11.19  ZnO

**For a gas, SI = log10(fugacity). Fugacity = pressure * phi / 1 atm.
  For ideal gases, phi = 1.

------------------
End of simulation.
------------------

-------------------------------------
Reading input data for simulation 38.
-------------------------------------

	SOLUTION 36
	pH		10.0
	Cl		0.05		mol/kgw
	Na		0.05		mol/kgw
	Zn	0.200 	mmol/kgw
	Edta  0.200 	mmol/kgw
	END
-------------------------------------------
Beginning of initial solution calculations.
-------------------------------------------

Initial solution 36.	

-----------------------------Solution composition------------------------------

	Elements           Molality       Moles

	Cl                5.000e-02   5.000e-02
	Edta              2.000e-04   2.000e-04
	Na                5.000e-02   5.000e-02
	Zn                2.000e-04   2.000e-04

----------------------------Description of solution----------------------------

                                       pH  =  10.000    
                                       pe  =   4.000    
                        Activity of water  =   0.998
                 Ionic strength (mol/kgw)  =   5.049e-02
                       Mass of water (kg)  =   1.000e+00
                 Total alkalinity (eq/kg)  =   5.345e-04
                         Temperature (°C)  =  25.00
                  Electrical balance (eq)  =  -5.345e-04
 Percent error, 100*(Cat-|An|)/(Cat+|An|)  =  -0.53
                               Iterations  =   9
                                  Total H  = 1.110138e+02
                                  Total O  = 5.550697e+01

----------------------------Distribution of species----------------------------

                                               Log       Log       Log    mole V
   Species          Molality    Activity  Molality  Activity     Gamma   cm³/mol

   OH-             1.240e-04   1.005e-04    -3.907    -3.998    -0.091     (0)  
   H+              1.219e-10   1.000e-10    -9.914   -10.000    -0.086      0.00
   H2O             5.551e+01   9.983e-01     1.744    -0.001     0.000     18.07
Cl            5.000e-02
   Cl-             5.000e-02   4.103e-02    -1.301    -1.387    -0.086     (0)  
   ZnOHCl          6.528e-10   6.528e-10    -9.185    -9.185     0.000     (0)  
   ZnCl+           6.082e-12   4.961e-12   -11.216   -11.304    -0.088     (0)  
   ZnCl2           3.226e-13   3.226e-13   -12.491   -12.491     0.000     (0)  
   ZnCl3-          1.289e-14   1.051e-14   -13.890   -13.978    -0.088     (0)  
   ZnCl4-2         4.664e-16   2.157e-16   -15.331   -15.666    -0.335     (0)  
Edta          2.000e-04
   Zn(Edta)-2      1.895e-04   8.595e-05    -3.722    -4.066    -0.343     (0)  
   ZnOH(Edta)-3    1.047e-05   1.768e-06    -4.980    -5.753    -0.773     (0)  
   Na(Edta)-3      9.233e-09   8.589e-10    -8.035    -9.066    -1.031     (0)  
   H(Edta)-3       3.983e-09   3.705e-10    -8.400    -9.431    -1.031     (0)  
   Edta-4          9.872e-10   4.177e-11    -9.006   -10.379    -1.374     (0)  
   ZnH(Edta)-      1.197e-11   9.823e-12   -10.922   -11.008    -0.086     (0)  
   H2(Edta)-2      1.996e-13   6.947e-14   -12.700   -13.158    -0.458     (0)  
   H3(Edta)-       1.190e-20   9.137e-21   -19.925   -20.039    -0.115     (0)  
   H4(Edta)        1.321e-28   1.321e-28   -27.879   -27.879     0.000     (0)  
   H5(Edta)+       5.438e-37   4.177e-37   -36.265   -36.379    -0.115     (0)  
H(0)          1.400e-31
   H2              6.998e-32   7.079e-32   -31.155   -31.150     0.005     (0)  
Na            5.000e-02
   Na+             5.000e-02   4.103e-02    -1.301    -1.387    -0.086     (0)  
   Na(Edta)-3      9.233e-09   8.589e-10    -8.035    -9.066    -1.031     (0)  
O(0)          1.993e-30
   O2              9.963e-31   1.008e-30   -30.002   -29.997     0.005     (0)  
Zn            2.000e-04
   Zn(Edta)-2      1.895e-04   8.595e-05    -3.722    -4.066    -0.343     (0)  
   ZnOH(Edta)-3    1.047e-05   1.768e-06    -4.980    -5.753    -0.773     (0)  
   Zn(OH)2         7.708e-09   7.708e-09    -8.113    -8.113     0.000     (0)  
   Zn(OH)3-        5.056e-09   3.883e-09    -8.296    -8.411    -0.115     (0)  
   ZnOHCl          6.528e-10   6.528e-10    -9.185    -9.185     0.000     (0)  
   ZnOH+           6.299e-10   4.838e-10    -9.201    -9.315    -0.115     (0)  
   Zn+2            1.061e-10   4.813e-11    -9.974   -10.318    -0.343     (0)  
   Zn(OH)4-2       4.465e-11   1.554e-11   -10.350   -10.809    -0.458     (0)  
   ZnH(Edta)-      1.197e-11   9.823e-12   -10.922   -11.008    -0.086     (0)  
   ZnCl+           6.082e-12   4.961e-12   -11.216   -11.304    -0.088     (0)  
   ZnCl2           3.226e-13   3.226e-13   -12.491   -12.491     0.000     (0)  
   ZnCl3-          1.289e-14   1.051e-14   -13.890   -13.978    -0.088     (0)  
   ZnCl4-2         4.664e-16   2.157e-16   -15.331   -15.666    -0.335     (0)  

------------------------------Saturation indices-------------------------------

  Phase               SI** log IAP   log K(298 K,   1 atm)

  Halite           -4.38     -2.77    1.60  NaCl
  O2(g)           -27.09     56.00   83.09  O2
  Zincite          -1.65      9.68   11.33  ZnO
  Zn(OH)2          -2.52      9.68   12.20  Zn(OH)2
  Zn(OH)2(am)      -2.79      9.68   12.47  Zn(OH)2
  Zn(OH)2(beta)    -2.07      9.68   11.75  Zn(OH)2
  Zn(OH)2(epsilon)  -1.85      9.68   11.53  Zn(OH)2
  Zn(OH)2(gamma)   -2.05      9.68   11.73  Zn(OH)2
  Zn2(OH)3Cl       -7.22      7.98   15.19  Zn2(OH)3Cl
  Zn5(OH)8Cl2     -12.87     25.63   38.50  Zn5(OH)8Cl2
  ZnCl2           -20.14    -13.09    7.05  ZnCl2
  Znmetal         -44.11    -18.32   25.79  Zn
  ZnO(active)      -1.51      9.68   11.19  ZnO

**For a gas, SI = log10(fugacity). Fugacity = pressure * phi / 1 atm.
  For ideal gases, phi = 1.

------------------
End of simulation.
------------------

-------------------------------------
Reading input data for simulation 39.
-------------------------------------

----------------------------------
End of Run after 0.065514 Seconds.
----------------------------------

