   Input file: /Users/wangjincheng/Desktop/git/irp-jw21/Project_jw21/pqi/0.05ZnNta.pqi
  Output file: /Users/wangjincheng/Desktop/git/irp-jw21/Project_jw21/pqo/0.05ZnNta.pqi.pqi.out
Database file: /Users/wangjincheng/Desktop/git/irp-jw21/Project_jw21/phreeqc/database/minteq.v4.dat

------------------
Reading data base.
------------------

	SOLUTION_MASTER_SPECIES
	SOLUTION_SPECIES
	SOLUTION_SPECIES
	PHASES
	PHASES
	SURFACE_MASTER_SPECIES
	SURFACE_SPECIES
	END
------------------------------------
Reading input data for simulation 1.
------------------------------------

	DATABASE /Users/wangjincheng/Desktop/git/irp-jw21/Project_jw21/phreeqc/database/minteq.v4.dat
	TITLE 04_SURFACE_COMPLEXATION
	SOLUTION_MASTER_SPECIES
	Zn		Zn+2		0.0	Zn	65.39
	Nta		Nta-3		1.0	188.117	188.117
	END
-----
TITLE
-----

 04_SURFACE_COMPLEXATION

------------------
End of simulation.
------------------

------------------------------------
Reading input data for simulation 2.
------------------------------------

	SOLUTION_SPECIES
	Zn+2 + Nta-3 = Zn(Nta)-
	log_k		10.923
	Zn+2 + 2Nta-3 = Zn(Nta)2-4
	log_k		14.367
	Zn+2 + Nta-3 + H2O = ZnOH(Nta)-2 + H+
	log_k		0.776
	END
------------------
End of simulation.
------------------

------------------------------------
Reading input data for simulation 3.
------------------------------------

	SOLUTION 1
	pH		3.0
	Cl		0.05		mol/kgw
	Na		0.05		mol/kgw
	Zn	0.200 	mmol/kgw
	Nta  0.200 	mmol/kgw
	END
-------------------------------------------
Beginning of initial solution calculations.
-------------------------------------------

Initial solution 1.	

-----------------------------Solution composition------------------------------

	Elements           Molality       Moles

	Cl                5.000e-02   5.000e-02
	Na                5.000e-02   5.000e-02
	Nta               2.000e-04   2.000e-04
	Zn                2.000e-04   2.000e-04

----------------------------Description of solution----------------------------

                                       pH  =   3.000    
                                       pe  =   4.000    
                        Activity of water  =   0.998
                 Ionic strength (mol/kgw)  =   5.124e-02
                       Mass of water (kg)  =   1.000e+00
                 Total alkalinity (eq/kg)  =  -1.260e-03
                         Temperature (°C)  =  25.00
                  Electrical balance (eq)  =   1.260e-03
 Percent error, 100*(Cat-|An|)/(Cat+|An|)  =   1.24
                               Iterations  =   9
                                  Total H  = 1.110151e+02
                                  Total O  = 5.550683e+01

----------------------------Distribution of species----------------------------

                                               Log       Log       Log    mole V
   Species          Molality    Activity  Molality  Activity     Gamma   cm³/mol

   H+              1.220e-03   1.000e-03    -2.914    -3.000    -0.086      0.00
   OH-             1.241e-11   1.005e-11   -10.906   -10.998    -0.092     (0)  
   H2O             5.551e+01   9.983e-01     1.744    -0.001     0.000     18.07
Cl            5.000e-02
   Cl-             4.999e-02   4.098e-02    -1.301    -1.387    -0.086     (0)  
   ZnCl+           9.777e-06   7.966e-06    -5.010    -5.099    -0.089     (0)  
   ZnCl2           5.174e-07   5.174e-07    -6.286    -6.286     0.000     (0)  
   ZnCl3-          2.067e-08   1.684e-08    -7.685    -7.774    -0.089     (0)  
   ZnCl4-2         7.492e-10   3.451e-10    -9.125    -9.462    -0.337     (0)  
   ZnOHCl          1.048e-10   1.048e-10    -9.980    -9.980     0.000     (0)  
H(0)          1.399e-17
   H2              6.996e-18   7.079e-18   -17.155   -17.150     0.005     (0)  
Na            5.000e-02
   Na+             5.000e-02   4.099e-02    -1.301    -1.387    -0.086     (0)  
Nta           2.000e-04
   H(Nta)-2        1.275e-04   4.402e-05    -3.895    -4.356    -0.462     (0)  
   H2(Nta)-        5.025e-05   3.852e-05    -4.299    -4.414    -0.115     (0)  
   Zn(Nta)-        1.835e-05   1.504e-05    -4.736    -4.823    -0.086     (0)  
   H3(Nta)         3.852e-06   3.852e-06    -5.414    -5.414     0.000     (0)  
   H4(Nta)+        5.025e-08   3.852e-08    -7.299    -7.414    -0.115     (0)  
   Nta-3           1.388e-11   2.321e-12   -10.858   -11.634    -0.777     (0)  
   ZnOH(Nta)-2     2.370e-12   1.070e-12   -11.625   -11.970    -0.345     (0)  
   Zn(Nta)2-4      2.333e-12   9.706e-14   -11.632   -13.013    -1.381     (0)  
O(0)          0.000e+00
   O2              0.000e+00   0.000e+00   -58.002   -57.997     0.005     (0)  
Zn            2.000e-04
   Zn+2            1.713e-04   7.738e-05    -3.766    -4.111    -0.345     (0)  
   Zn(Nta)-        1.835e-05   1.504e-05    -4.736    -4.823    -0.086     (0)  
   ZnCl+           9.777e-06   7.966e-06    -5.010    -5.099    -0.089     (0)  
   ZnCl2           5.174e-07   5.174e-07    -6.286    -6.286     0.000     (0)  
   ZnCl3-          2.067e-08   1.684e-08    -7.685    -7.774    -0.089     (0)  
   ZnCl4-2         7.492e-10   3.451e-10    -9.125    -9.462    -0.337     (0)  
   ZnOHCl          1.048e-10   1.048e-10    -9.980    -9.980     0.000     (0)  
   ZnOH+           1.015e-10   7.778e-11    -9.994   -10.109    -0.115     (0)  
   ZnOH(Nta)-2     2.370e-12   1.070e-12   -11.625   -11.970    -0.345     (0)  
   Zn(Nta)2-4      2.333e-12   9.706e-14   -11.632   -13.013    -1.381     (0)  
   Zn(OH)2         1.239e-16   1.239e-16   -15.907   -15.907     0.000     (0)  
   Zn(OH)3-        8.144e-24   6.243e-24   -23.089   -23.205    -0.115     (0)  
   Zn(OH)4-2       7.235e-33   2.498e-33   -32.141   -32.602    -0.462     (0)  

------------------------------Saturation indices-------------------------------

  Phase               SI** log IAP   log K(298 K,   1 atm)

  Halite           -4.38     -2.77    1.60  NaCl
  O2(g)           -55.09     28.00   83.09  O2
  Zincite          -9.45      1.89   11.33  ZnO
  Zn(OH)2         -10.31      1.89   12.20  Zn(OH)2
  Zn(OH)2(am)     -10.59      1.89   12.47  Zn(OH)2
  Zn(OH)2(beta)    -9.87      1.89   11.75  Zn(OH)2
  Zn(OH)2(epsilon)  -9.65      1.89   11.53  Zn(OH)2
  Zn(OH)2(gamma)   -9.85      1.89   11.73  Zn(OH)2
  Zn2(OH)3Cl      -15.80     -0.61   15.19  Zn2(OH)3Cl
  Zn5(OH)8Cl2     -37.84      0.66   38.50  Zn5(OH)8Cl2
  ZnCl2           -13.94     -6.89    7.05  ZnCl2
  Znmetal         -37.90    -12.11   25.79  Zn
  ZnO(active)      -9.30      1.89   11.19  ZnO

**For a gas, SI = log10(fugacity). Fugacity = pressure * phi / 1 atm.
  For ideal gases, phi = 1.

------------------
End of simulation.
------------------

------------------------------------
Reading input data for simulation 4.
------------------------------------

	SOLUTION 2
	pH		3.2
	Cl		0.05		mol/kgw
	Na		0.05		mol/kgw
	Zn	0.200 	mmol/kgw
	Nta  0.200 	mmol/kgw
	END
-------------------------------------------
Beginning of initial solution calculations.
-------------------------------------------

Initial solution 2.	

-----------------------------Solution composition------------------------------

	Elements           Molality       Moles

	Cl                5.000e-02   5.000e-02
	Na                5.000e-02   5.000e-02
	Nta               2.000e-04   2.000e-04
	Zn                2.000e-04   2.000e-04

----------------------------Description of solution----------------------------

                                       pH  =   3.200    
                                       pe  =   4.000    
                        Activity of water  =   0.998
                 Ionic strength (mol/kgw)  =   5.101e-02
                       Mass of water (kg)  =   1.000e+00
                 Total alkalinity (eq/kg)  =  -7.773e-04
                         Temperature (°C)  =  25.00
                  Electrical balance (eq)  =   7.773e-04
 Percent error, 100*(Cat-|An|)/(Cat+|An|)  =   0.77
                               Iterations  =   8
                                  Total H  = 1.110146e+02
                                  Total O  = 5.550683e+01

----------------------------Distribution of species----------------------------

                                               Log       Log       Log    mole V
   Species          Molality    Activity  Molality  Activity     Gamma   cm³/mol

   H+              7.694e-04   6.310e-04    -3.114    -3.200    -0.086      0.00
   OH-             1.967e-11   1.593e-11   -10.706   -10.798    -0.091     (0)  
   H2O             5.551e+01   9.983e-01     1.744    -0.001     0.000     18.07
Cl            5.000e-02
   Cl-             4.999e-02   4.099e-02    -1.301    -1.387    -0.086     (0)  
   ZnCl+           9.206e-06   7.503e-06    -5.036    -5.125    -0.089     (0)  
   ZnCl2           4.875e-07   4.875e-07    -6.312    -6.312     0.000     (0)  
   ZnCl3-          1.948e-08   1.587e-08    -7.710    -7.799    -0.089     (0)  
   ZnCl4-2         7.055e-10   3.254e-10    -9.152    -9.488    -0.336     (0)  
   ZnOHCl          1.565e-10   1.565e-10    -9.806    -9.806     0.000     (0)  
H(0)          5.571e-18
   H2              2.785e-18   2.818e-18   -17.555   -17.550     0.005     (0)  
Na            5.000e-02
   Na+             5.000e-02   4.100e-02    -1.301    -1.387    -0.086     (0)  
Nta           2.000e-04
   H(Nta)-2        1.355e-04   4.688e-05    -3.868    -4.329    -0.461     (0)  
   H2(Nta)-        3.375e-05   2.588e-05    -4.472    -4.587    -0.115     (0)  
   Zn(Nta)-        2.916e-05   2.391e-05    -4.535    -4.621    -0.086     (0)  
   H3(Nta)         1.633e-06   1.633e-06    -5.787    -5.787     0.000     (0)  
   H4(Nta)+        1.343e-08   1.030e-08    -7.872    -7.987    -0.115     (0)  
   Nta-3           2.336e-11   3.918e-12   -10.632   -11.407    -0.775     (0)  
   Zn(Nta)2-4      6.226e-12   2.604e-13   -11.206   -12.584    -1.379     (0)  
   ZnOH(Nta)-2     5.963e-12   2.697e-12   -11.225   -11.569    -0.345     (0)  
O(0)          0.000e+00
   O2              0.000e+00   0.000e+00   -57.202   -57.197     0.005     (0)  
Zn            2.000e-04
   Zn+2            1.611e-04   7.287e-05    -3.793    -4.137    -0.345     (0)  
   Zn(Nta)-        2.916e-05   2.391e-05    -4.535    -4.621    -0.086     (0)  
   ZnCl+           9.206e-06   7.503e-06    -5.036    -5.125    -0.089     (0)  
   ZnCl2           4.875e-07   4.875e-07    -6.312    -6.312     0.000     (0)  
   ZnCl3-          1.948e-08   1.587e-08    -7.710    -7.799    -0.089     (0)  
   ZnCl4-2         7.055e-10   3.254e-10    -9.152    -9.488    -0.336     (0)  
   ZnOHCl          1.565e-10   1.565e-10    -9.806    -9.806     0.000     (0)  
   ZnOH+           1.513e-10   1.161e-10    -9.820    -9.935    -0.115     (0)  
   Zn(Nta)2-4      6.226e-12   2.604e-13   -11.206   -12.584    -1.379     (0)  
   ZnOH(Nta)-2     5.963e-12   2.697e-12   -11.225   -11.569    -0.345     (0)  
   Zn(OH)2         2.931e-16   2.931e-16   -15.533   -15.533     0.000     (0)  
   Zn(OH)3-        3.051e-23   2.340e-23   -22.516   -22.631    -0.115     (0)  
   Zn(OH)4-2       4.288e-32   1.484e-32   -31.368   -31.828    -0.461     (0)  

------------------------------Saturation indices-------------------------------

  Phase               SI** log IAP   log K(298 K,   1 atm)

  Halite           -4.38     -2.77    1.60  NaCl
  O2(g)           -54.29     28.80   83.09  O2
  Zincite          -9.07      2.26   11.33  ZnO
  Zn(OH)2          -9.94      2.26   12.20  Zn(OH)2
  Zn(OH)2(am)     -10.21      2.26   12.47  Zn(OH)2
  Zn(OH)2(beta)    -9.49      2.26   11.75  Zn(OH)2
  Zn(OH)2(epsilon)  -9.27      2.26   11.53  Zn(OH)2
  Zn(OH)2(gamma)   -9.47      2.26   11.73  Zn(OH)2
  Zn2(OH)3Cl      -15.26     -0.06   15.19  Zn2(OH)3Cl
  Zn5(OH)8Cl2     -36.37      2.13   38.50  Zn5(OH)8Cl2
  ZnCl2           -13.96     -6.91    7.05  ZnCl2
  Znmetal         -37.93    -12.14   25.79  Zn
  ZnO(active)      -8.93      2.26   11.19  ZnO

**For a gas, SI = log10(fugacity). Fugacity = pressure * phi / 1 atm.
  For ideal gases, phi = 1.

------------------
End of simulation.
------------------

------------------------------------
Reading input data for simulation 5.
------------------------------------

	SOLUTION 3
	pH		3.4
	Cl		0.05		mol/kgw
	Na		0.05		mol/kgw
	Zn	0.200 	mmol/kgw
	Nta  0.200 	mmol/kgw
	END
-------------------------------------------
Beginning of initial solution calculations.
-------------------------------------------

Initial solution 3.	

-----------------------------Solution composition------------------------------

	Elements           Molality       Moles

	Cl                5.000e-02   5.000e-02
	Na                5.000e-02   5.000e-02
	Nta               2.000e-04   2.000e-04
	Zn                2.000e-04   2.000e-04

----------------------------Description of solution----------------------------

                                       pH  =   3.400    
                                       pe  =   4.000    
                        Activity of water  =   0.998
                 Ionic strength (mol/kgw)  =   5.084e-02
                       Mass of water (kg)  =   1.000e+00
                 Total alkalinity (eq/kg)  =  -4.653e-04
                         Temperature (°C)  =  25.00
                  Electrical balance (eq)  =   4.653e-04
 Percent error, 100*(Cat-|An|)/(Cat+|An|)  =   0.46
                               Iterations  =   8
                                  Total H  = 1.110143e+02
                                  Total O  = 5.550683e+01

----------------------------Distribution of species----------------------------

                                               Log       Log       Log    mole V
   Species          Molality    Activity  Molality  Activity     Gamma   cm³/mol

   H+              4.854e-04   3.981e-04    -3.314    -3.400    -0.086      0.00
   OH-             3.116e-11   2.525e-11   -10.506   -10.598    -0.091     (0)  
   H2O             5.551e+01   9.983e-01     1.744    -0.001     0.000     18.07
Cl            5.000e-02
   Cl-             4.999e-02   4.100e-02    -1.301    -1.387    -0.086     (0)  
   ZnCl+           8.487e-06   6.919e-06    -5.071    -5.160    -0.089     (0)  
   ZnCl2           4.496e-07   4.496e-07    -6.347    -6.347     0.000     (0)  
   ZnCl3-          1.796e-08   1.464e-08    -7.746    -7.834    -0.089     (0)  
   ZnCl4-2         6.504e-10   3.003e-10    -9.187    -9.523    -0.336     (0)  
   ZnOHCl          2.287e-10   2.287e-10    -9.641    -9.641     0.000     (0)  
H(0)          2.218e-18
   H2              1.109e-18   1.122e-18   -17.955   -17.950     0.005     (0)  
Na            5.000e-02
   Na+             5.000e-02   4.101e-02    -1.301    -1.387    -0.086     (0)  
Nta           2.000e-04
   H(Nta)-2        1.354e-04   4.695e-05    -3.868    -4.328    -0.460     (0)  
   Zn(Nta)-        4.264e-05   3.498e-05    -4.370    -4.456    -0.086     (0)  
   H2(Nta)-        2.131e-05   1.635e-05    -4.671    -4.786    -0.115     (0)  
   H3(Nta)         6.510e-07   6.510e-07    -6.186    -6.186     0.000     (0)  
   H4(Nta)+        3.377e-09   2.592e-09    -8.471    -8.586    -0.115     (0)  
   Nta-3           3.700e-11   6.217e-12   -10.432   -11.206    -0.775     (0)  
   Zn(Nta)2-4      1.440e-11   6.045e-13   -10.842   -12.219    -1.377     (0)  
   ZnOH(Nta)-2     1.381e-11   6.252e-12   -10.860   -11.204    -0.344     (0)  
O(0)          0.000e+00
   O2              0.000e+00   0.000e+00   -56.402   -56.397     0.005     (0)  
Zn            2.000e-04
   Zn+2            1.484e-04   6.717e-05    -3.829    -4.173    -0.344     (0)  
   Zn(Nta)-        4.264e-05   3.498e-05    -4.370    -4.456    -0.086     (0)  
   ZnCl+           8.487e-06   6.919e-06    -5.071    -5.160    -0.089     (0)  
   ZnCl2           4.496e-07   4.496e-07    -6.347    -6.347     0.000     (0)  
   ZnCl3-          1.796e-08   1.464e-08    -7.746    -7.834    -0.089     (0)  
   ZnCl4-2         6.504e-10   3.003e-10    -9.187    -9.523    -0.336     (0)  
   ZnOHCl          2.287e-10   2.287e-10    -9.641    -9.641     0.000     (0)  
   ZnOH+           2.210e-10   1.696e-10    -9.656    -9.771    -0.115     (0)  
   Zn(Nta)2-4      1.440e-11   6.045e-13   -10.842   -12.219    -1.377     (0)  
   ZnOH(Nta)-2     1.381e-11   6.252e-12   -10.860   -11.204    -0.344     (0)  
   Zn(OH)2         6.787e-16   6.787e-16   -15.168   -15.168     0.000     (0)  
   Zn(OH)3-        1.119e-22   8.589e-23   -21.951   -22.066    -0.115     (0)  
   Zn(OH)4-2       2.490e-31   8.634e-32   -30.604   -31.064    -0.460     (0)  

------------------------------Saturation indices-------------------------------

  Phase               SI** log IAP   log K(298 K,   1 atm)

  Halite           -4.38     -2.77    1.60  NaCl
  O2(g)           -53.49     29.60   83.09  O2
  Zincite          -8.71      2.63   11.33  ZnO
  Zn(OH)2          -9.57      2.63   12.20  Zn(OH)2
  Zn(OH)2(am)      -9.85      2.63   12.47  Zn(OH)2
  Zn(OH)2(beta)    -9.13      2.63   11.75  Zn(OH)2
  Zn(OH)2(epsilon)  -8.91      2.63   11.53  Zn(OH)2
  Zn(OH)2(gamma)   -9.11      2.63   11.73  Zn(OH)2
  Zn2(OH)3Cl      -14.73      0.46   15.19  Zn2(OH)3Cl
  Zn5(OH)8Cl2     -34.94      3.56   38.50  Zn5(OH)8Cl2
  ZnCl2           -14.00     -6.95    7.05  ZnCl2
  Znmetal         -37.96    -12.17   25.79  Zn
  ZnO(active)      -8.56      2.63   11.19  ZnO

**For a gas, SI = log10(fugacity). Fugacity = pressure * phi / 1 atm.
  For ideal gases, phi = 1.

------------------
End of simulation.
------------------

------------------------------------
Reading input data for simulation 6.
------------------------------------

	SOLUTION 4
	pH		3.6
	Cl		0.05		mol/kgw
	Na		0.05		mol/kgw
	Zn	0.200 	mmol/kgw
	Nta  0.200 	mmol/kgw
	END
-------------------------------------------
Beginning of initial solution calculations.
-------------------------------------------

Initial solution 4.	

-----------------------------Solution composition------------------------------

	Elements           Molality       Moles

	Cl                5.000e-02   5.000e-02
	Na                5.000e-02   5.000e-02
	Nta               2.000e-04   2.000e-04
	Zn                2.000e-04   2.000e-04

----------------------------Description of solution----------------------------

                                       pH  =   3.600    
                                       pe  =   4.000    
                        Activity of water  =   0.998
                 Ionic strength (mol/kgw)  =   5.071e-02
                       Mass of water (kg)  =   1.000e+00
                 Total alkalinity (eq/kg)  =  -2.614e-04
                         Temperature (°C)  =  25.00
                  Electrical balance (eq)  =   2.614e-04
 Percent error, 100*(Cat-|An|)/(Cat+|An|)  =   0.26
                               Iterations  =   8
                                  Total H  = 1.110141e+02
                                  Total O  = 5.550683e+01

----------------------------Distribution of species----------------------------

                                               Log       Log       Log    mole V
   Species          Molality    Activity  Molality  Activity     Gamma   cm³/mol

   H+              3.062e-04   2.512e-04    -3.514    -3.600    -0.086      0.00
   OH-             4.937e-11   4.002e-11   -10.307   -10.398    -0.091     (0)  
   H2O             5.551e+01   9.983e-01     1.744    -0.001     0.000     18.07
Cl            5.000e-02
   Cl-             4.999e-02   4.101e-02    -1.301    -1.387    -0.086     (0)  
   ZnCl+           7.658e-06   6.244e-06    -5.116    -5.205    -0.089     (0)  
   ZnCl2           4.059e-07   4.059e-07    -6.392    -6.392     0.000     (0)  
   ZnCl3-          1.622e-08   1.322e-08    -7.790    -7.879    -0.089     (0)  
   ZnCl4-2         5.869e-10   2.712e-10    -9.231    -9.567    -0.335     (0)  
   ZnOHCl          3.271e-10   3.271e-10    -9.485    -9.485     0.000     (0)  
H(0)          8.830e-19
   H2              4.415e-19   4.467e-19   -18.355   -18.350     0.005     (0)  
Na            5.000e-02
   Na+             5.000e-02   4.102e-02    -1.301    -1.387    -0.086     (0)  
Nta           2.000e-04
   H(Nta)-2        1.288e-04   4.473e-05    -3.890    -4.349    -0.459     (0)  
   Zn(Nta)-        5.810e-05   4.767e-05    -4.236    -4.322    -0.086     (0)  
   H2(Nta)-        1.281e-05   9.832e-06    -4.893    -5.007    -0.115     (0)  
   H3(Nta)         2.470e-07   2.470e-07    -6.607    -6.607     0.000     (0)  
   H4(Nta)+        8.081e-10   6.203e-10    -9.093    -9.207    -0.115     (0)  
   Nta-3           5.578e-11   9.389e-12   -10.253   -11.027    -0.774     (0)  
   ZnOH(Nta)-2     2.981e-11   1.350e-11   -10.526   -10.870    -0.344     (0)  
   Zn(Nta)2-4      2.955e-11   1.244e-12   -10.529   -11.905    -1.376     (0)  
O(0)          0.000e+00
   O2              0.000e+00   0.000e+00   -55.602   -55.597     0.005     (0)  
Zn            2.000e-04
   Zn+2            1.338e-04   6.061e-05    -3.873    -4.217    -0.344     (0)  
   Zn(Nta)-        5.810e-05   4.767e-05    -4.236    -4.322    -0.086     (0)  
   ZnCl+           7.658e-06   6.244e-06    -5.116    -5.205    -0.089     (0)  
   ZnCl2           4.059e-07   4.059e-07    -6.392    -6.392     0.000     (0)  
   ZnCl3-          1.622e-08   1.322e-08    -7.790    -7.879    -0.089     (0)  
   ZnCl4-2         5.869e-10   2.712e-10    -9.231    -9.567    -0.335     (0)  
   ZnOHCl          3.271e-10   3.271e-10    -9.485    -9.485     0.000     (0)  
   ZnOH+           3.160e-10   2.426e-10    -9.500    -9.615    -0.115     (0)  
   ZnOH(Nta)-2     2.981e-11   1.350e-11   -10.526   -10.870    -0.344     (0)  
   Zn(Nta)2-4      2.955e-11   1.244e-12   -10.529   -11.905    -1.376     (0)  
   Zn(OH)2         1.538e-15   1.538e-15   -14.813   -14.813     0.000     (0)  
   Zn(OH)3-        4.020e-22   3.086e-22   -21.396   -21.511    -0.115     (0)  
   Zn(OH)4-2       1.416e-30   4.916e-31   -29.849   -30.308    -0.459     (0)  

------------------------------Saturation indices-------------------------------

  Phase               SI** log IAP   log K(298 K,   1 atm)

  Halite           -4.38     -2.77    1.60  NaCl
  O2(g)           -52.69     30.40   83.09  O2
  Zincite          -8.35      2.98   11.33  ZnO
  Zn(OH)2          -9.22      2.98   12.20  Zn(OH)2
  Zn(OH)2(am)      -9.49      2.98   12.47  Zn(OH)2
  Zn(OH)2(beta)    -8.77      2.98   11.75  Zn(OH)2
  Zn(OH)2(epsilon)  -8.55      2.98   11.53  Zn(OH)2
  Zn(OH)2(gamma)   -8.75      2.98   11.73  Zn(OH)2
  Zn2(OH)3Cl      -14.22      0.98   15.19  Zn2(OH)3Cl
  Zn5(OH)8Cl2     -33.57      4.93   38.50  Zn5(OH)8Cl2
  ZnCl2           -14.04     -6.99    7.05  ZnCl2
  Znmetal         -38.01    -12.22   25.79  Zn
  ZnO(active)      -8.21      2.98   11.19  ZnO

**For a gas, SI = log10(fugacity). Fugacity = pressure * phi / 1 atm.
  For ideal gases, phi = 1.

------------------
End of simulation.
------------------

------------------------------------
Reading input data for simulation 7.
------------------------------------

	SOLUTION 5
	pH		3.8
	Cl		0.05		mol/kgw
	Na		0.05		mol/kgw
	Zn	0.200 	mmol/kgw
	Nta  0.200 	mmol/kgw
	END
-------------------------------------------
Beginning of initial solution calculations.
-------------------------------------------

Initial solution 5.	

-----------------------------Solution composition------------------------------

	Elements           Molality       Moles

	Cl                5.000e-02   5.000e-02
	Na                5.000e-02   5.000e-02
	Nta               2.000e-04   2.000e-04
	Zn                2.000e-04   2.000e-04

----------------------------Description of solution----------------------------

                                       pH  =   3.800    
                                       pe  =   4.000    
                        Activity of water  =   0.998
                 Ionic strength (mol/kgw)  =   5.061e-02
                       Mass of water (kg)  =   1.000e+00
                 Total alkalinity (eq/kg)  =  -1.262e-04
                         Temperature (°C)  =  25.00
                  Electrical balance (eq)  =   1.262e-04
 Percent error, 100*(Cat-|An|)/(Cat+|An|)  =   0.13
                               Iterations  =   8
                                  Total H  = 1.110140e+02
                                  Total O  = 5.550683e+01

----------------------------Distribution of species----------------------------

                                               Log       Log       Log    mole V
   Species          Molality    Activity  Molality  Activity     Gamma   cm³/mol

   H+              1.932e-04   1.585e-04    -3.714    -3.800    -0.086      0.00
   OH-             7.824e-11   6.342e-11   -10.107   -10.198    -0.091     (0)  
   H2O             5.551e+01   9.983e-01     1.744    -0.001     0.000     18.07
Cl            5.000e-02
   Cl-             4.999e-02   4.102e-02    -1.301    -1.387    -0.086     (0)  
   ZnCl+           6.772e-06   5.522e-06    -5.169    -5.258    -0.089     (0)  
   ZnCl2           3.590e-07   3.590e-07    -6.445    -6.445     0.000     (0)  
   ZnCl3-          1.434e-08   1.170e-08    -7.843    -7.932    -0.089     (0)  
   ZnCl4-2         5.190e-10   2.399e-10    -9.285    -9.620    -0.335     (0)  
   ZnOHCl          4.586e-10   4.586e-10    -9.339    -9.339     0.000     (0)  
H(0)          3.515e-19
   H2              1.758e-19   1.778e-19   -18.755   -18.750     0.005     (0)  
Na            5.000e-02
   Na+             5.000e-02   4.102e-02    -1.301    -1.387    -0.086     (0)  
Nta           2.000e-04
   H(Nta)-2        1.179e-04   4.098e-05    -3.928    -4.387    -0.459     (0)  
   Zn(Nta)-        7.459e-05   6.120e-05    -4.127    -4.213    -0.086     (0)  
   H2(Nta)-        7.402e-06   5.684e-06    -5.131    -5.245    -0.115     (0)  
   H3(Nta)         9.008e-08   9.008e-08    -7.045    -7.045     0.000     (0)  
   H4(Nta)+        1.859e-10   1.428e-10    -9.731    -9.845    -0.115     (0)  
   Nta-3           8.090e-11   1.363e-11   -10.092   -10.865    -0.773     (0)  
   ZnOH(Nta)-2     6.063e-11   2.748e-11   -10.217   -10.561    -0.344     (0)  
   Zn(Nta)2-4      5.497e-11   2.319e-12   -10.260   -11.635    -1.375     (0)  
O(0)          0.000e+00
   O2              0.000e+00   0.000e+00   -54.802   -54.797     0.005     (0)  
Zn            2.000e-04
   Zn+2            1.183e-04   5.360e-05    -3.927    -4.271    -0.344     (0)  
   Zn(Nta)-        7.459e-05   6.120e-05    -4.127    -4.213    -0.086     (0)  
   ZnCl+           6.772e-06   5.522e-06    -5.169    -5.258    -0.089     (0)  
   ZnCl2           3.590e-07   3.590e-07    -6.445    -6.445     0.000     (0)  
   ZnCl3-          1.434e-08   1.170e-08    -7.843    -7.932    -0.089     (0)  
   ZnCl4-2         5.190e-10   2.399e-10    -9.285    -9.620    -0.335     (0)  
   ZnOHCl          4.586e-10   4.586e-10    -9.339    -9.339     0.000     (0)  
   ZnOH+           4.427e-10   3.399e-10    -9.354    -9.469    -0.115     (0)  
   ZnOH(Nta)-2     6.063e-11   2.748e-11   -10.217   -10.561    -0.344     (0)  
   Zn(Nta)2-4      5.497e-11   2.319e-12   -10.260   -11.635    -1.375     (0)  
   Zn(OH)2         3.417e-15   3.417e-15   -14.466   -14.466     0.000     (0)  
   Zn(OH)3-        1.415e-21   1.086e-21   -20.849   -20.964    -0.115     (0)  
   Zn(OH)4-2       7.891e-30   2.743e-30   -29.103   -29.562    -0.459     (0)  

------------------------------Saturation indices-------------------------------

  Phase               SI** log IAP   log K(298 K,   1 atm)

  Halite           -4.38     -2.77    1.60  NaCl
  O2(g)           -51.89     31.20   83.09  O2
  Zincite          -8.01      3.33   11.33  ZnO
  Zn(OH)2          -8.87      3.33   12.20  Zn(OH)2
  Zn(OH)2(am)      -9.15      3.33   12.47  Zn(OH)2
  Zn(OH)2(beta)    -8.43      3.33   11.75  Zn(OH)2
  Zn(OH)2(epsilon)  -8.21      3.33   11.53  Zn(OH)2
  Zn(OH)2(gamma)   -8.41      3.33   11.73  Zn(OH)2
  Zn2(OH)3Cl      -13.72      1.47   15.19  Zn2(OH)3Cl
  Zn5(OH)8Cl2     -32.23      6.27   38.50  Zn5(OH)8Cl2
  ZnCl2           -14.09     -7.04    7.05  ZnCl2
  Znmetal         -38.06    -12.27   25.79  Zn
  ZnO(active)      -7.86      3.33   11.19  ZnO

**For a gas, SI = log10(fugacity). Fugacity = pressure * phi / 1 atm.
  For ideal gases, phi = 1.

------------------
End of simulation.
------------------

------------------------------------
Reading input data for simulation 8.
------------------------------------

	SOLUTION 6
	pH		4.0
	Cl		0.05		mol/kgw
	Na		0.05		mol/kgw
	Zn	0.200 	mmol/kgw
	Nta  0.200 	mmol/kgw
	END
-------------------------------------------
Beginning of initial solution calculations.
-------------------------------------------

Initial solution 6.	

-----------------------------Solution composition------------------------------

	Elements           Molality       Moles

	Cl                5.000e-02   5.000e-02
	Na                5.000e-02   5.000e-02
	Nta               2.000e-04   2.000e-04
	Zn                2.000e-04   2.000e-04

----------------------------Description of solution----------------------------

                                       pH  =   4.000    
                                       pe  =   4.000    
                        Activity of water  =   0.998
                 Ionic strength (mol/kgw)  =   5.052e-02
                       Mass of water (kg)  =   1.000e+00
                 Total alkalinity (eq/kg)  =  -3.490e-05
                         Temperature (°C)  =  25.00
                  Electrical balance (eq)  =   3.490e-05
 Percent error, 100*(Cat-|An|)/(Cat+|An|)  =   0.03
                               Iterations  =   8
                                  Total H  = 1.110139e+02
                                  Total O  = 5.550683e+01

----------------------------Distribution of species----------------------------

                                               Log       Log       Log    mole V
   Species          Molality    Activity  Molality  Activity     Gamma   cm³/mol

   H+              1.219e-04   1.000e-04    -3.914    -4.000    -0.086      0.00
   OH-             1.240e-10   1.005e-10    -9.907    -9.998    -0.091     (0)  
   H2O             5.551e+01   9.983e-01     1.744    -0.001     0.000     18.07
Cl            5.000e-02
   Cl-             4.999e-02   4.102e-02    -1.301    -1.387    -0.086     (0)  
   ZnCl+           5.879e-06   4.795e-06    -5.231    -5.319    -0.089     (0)  
   ZnCl2           3.118e-07   3.118e-07    -6.506    -6.506     0.000     (0)  
   ZnCl3-          1.246e-08   1.016e-08    -7.905    -7.993    -0.089     (0)  
   ZnOHCl          6.311e-10   6.311e-10    -9.200    -9.200     0.000     (0)  
   ZnCl4-2         4.507e-10   2.084e-10    -9.346    -9.681    -0.335     (0)  
H(0)          1.400e-19
   H2              6.998e-20   7.079e-20   -19.155   -19.150     0.005     (0)  
Na            5.000e-02
   Na+             5.000e-02   4.103e-02    -1.301    -1.387    -0.086     (0)  
Nta           2.000e-04
   H(Nta)-2        1.047e-04   3.641e-05    -3.980    -4.439    -0.459     (0)  
   Zn(Nta)-        9.117e-05   7.481e-05    -4.040    -4.126    -0.086     (0)  
   H2(Nta)-        4.148e-06   3.186e-06    -5.382    -5.497    -0.115     (0)  
   H3(Nta)         3.186e-08   3.186e-08    -7.497    -7.497     0.000     (0)  
   ZnOH(Nta)-2     1.174e-10   5.324e-11    -9.930   -10.274    -0.343     (0)  
   Nta-3           1.138e-10   1.920e-11    -9.944   -10.717    -0.773     (0)  
   Zn(Nta)2-4      9.442e-11   3.992e-12   -10.025   -11.399    -1.374     (0)  
   H4(Nta)+        4.148e-11   3.186e-11   -10.382   -10.497    -0.115     (0)  
O(0)          0.000e+00
   O2              0.000e+00   0.000e+00   -54.002   -53.997     0.005     (0)  
Zn            2.000e-04
   Zn+2            1.026e-04   4.654e-05    -3.989    -4.332    -0.343     (0)  
   Zn(Nta)-        9.117e-05   7.481e-05    -4.040    -4.126    -0.086     (0)  
   ZnCl+           5.879e-06   4.795e-06    -5.231    -5.319    -0.089     (0)  
   ZnCl2           3.118e-07   3.118e-07    -6.506    -6.506     0.000     (0)  
   ZnCl3-          1.246e-08   1.016e-08    -7.905    -7.993    -0.089     (0)  
   ZnOHCl          6.311e-10   6.311e-10    -9.200    -9.200     0.000     (0)  
   ZnOH+           6.091e-10   4.678e-10    -9.215    -9.330    -0.115     (0)  
   ZnCl4-2         4.507e-10   2.084e-10    -9.346    -9.681    -0.335     (0)  
   ZnOH(Nta)-2     1.174e-10   5.324e-11    -9.930   -10.274    -0.343     (0)  
   Zn(Nta)2-4      9.442e-11   3.992e-12   -10.025   -11.399    -1.374     (0)  
   Zn(OH)2         7.452e-15   7.452e-15   -14.128   -14.128     0.000     (0)  
   Zn(OH)3-        4.889e-21   3.755e-21   -20.311   -20.425    -0.115     (0)  
   Zn(OH)4-2       4.319e-29   1.502e-29   -28.365   -28.823    -0.459     (0)  

------------------------------Saturation indices-------------------------------

  Phase               SI** log IAP   log K(298 K,   1 atm)

  Halite           -4.38     -2.77    1.60  NaCl
  O2(g)           -51.09     32.00   83.09  O2
  Zincite          -7.67      3.67   11.33  ZnO
  Zn(OH)2          -8.53      3.67   12.20  Zn(OH)2
  Zn(OH)2(am)      -8.81      3.67   12.47  Zn(OH)2
  Zn(OH)2(beta)    -8.09      3.67   11.75  Zn(OH)2
  Zn(OH)2(epsilon)  -7.87      3.67   11.53  Zn(OH)2
  Zn(OH)2(gamma)   -8.07      3.67   11.73  Zn(OH)2
  Zn2(OH)3Cl      -13.24      1.95   15.19  Zn2(OH)3Cl
  Zn5(OH)8Cl2     -30.94      7.56   38.50  Zn5(OH)8Cl2
  ZnCl2           -14.16     -7.11    7.05  ZnCl2
  Znmetal         -38.12    -12.33   25.79  Zn
  ZnO(active)      -7.52      3.67   11.19  ZnO

**For a gas, SI = log10(fugacity). Fugacity = pressure * phi / 1 atm.
  For ideal gases, phi = 1.

------------------
End of simulation.
------------------

------------------------------------
Reading input data for simulation 9.
------------------------------------

	SOLUTION 7
	pH		4.2
	Cl		0.05		mol/kgw
	Na		0.05		mol/kgw
	Zn	0.200 	mmol/kgw
	Nta  0.200 	mmol/kgw
	END
-------------------------------------------
Beginning of initial solution calculations.
-------------------------------------------

Initial solution 7.	

-----------------------------Solution composition------------------------------

	Elements           Molality       Moles

	Cl                5.000e-02   5.000e-02
	Na                5.000e-02   5.000e-02
	Nta               2.000e-04   2.000e-04
	Zn                2.000e-04   2.000e-04

----------------------------Description of solution----------------------------

                                       pH  =   4.200    
                                       pe  =   4.000    
                        Activity of water  =   0.998
                 Ionic strength (mol/kgw)  =   5.045e-02
                       Mass of water (kg)  =   1.000e+00
                 Total alkalinity (eq/kg)  =   2.787e-05
                         Temperature (°C)  =  25.00
                  Electrical balance (eq)  =  -2.787e-05
 Percent error, 100*(Cat-|An|)/(Cat+|An|)  =  -0.03
                               Iterations  =   8
                                  Total H  = 1.110138e+02
                                  Total O  = 5.550683e+01

----------------------------Distribution of species----------------------------

                                               Log       Log       Log    mole V
   Species          Molality    Activity  Molality  Activity     Gamma   cm³/mol

   H+              7.688e-05   6.310e-05    -4.114    -4.200    -0.086      0.00
   OH-             1.965e-10   1.593e-10    -9.707    -9.798    -0.091     (0)  
   H2O             5.551e+01   9.983e-01     1.744    -0.001     0.000     18.07
Cl            5.000e-02
   Cl-             4.999e-02   4.103e-02    -1.301    -1.387    -0.086     (0)  
   ZnCl+           5.024e-06   4.098e-06    -5.299    -5.387    -0.088     (0)  
   ZnCl2           2.665e-07   2.665e-07    -6.574    -6.574     0.000     (0)  
   ZnCl3-          1.065e-08   8.685e-09    -7.973    -8.061    -0.088     (0)  
   ZnOHCl          8.547e-10   8.547e-10    -9.068    -9.068     0.000     (0)  
   ZnCl4-2         3.851e-10   1.782e-10    -9.414    -9.749    -0.335     (0)  
H(0)          5.572e-20
   H2              2.786e-20   2.818e-20   -19.555   -19.550     0.005     (0)  
Na            5.000e-02
   Na+             5.000e-02   4.103e-02    -1.301    -1.387    -0.086     (0)  
Nta           2.000e-04
   Zn(Nta)-        1.070e-04   8.785e-05    -3.970    -4.056    -0.086     (0)  
   H(Nta)-2        9.068e-05   3.157e-05    -4.043    -4.501    -0.458     (0)  
   H2(Nta)-        2.269e-06   1.743e-06    -5.644    -5.759    -0.115     (0)  
   H3(Nta)         1.100e-08   1.100e-08    -7.959    -7.959     0.000     (0)  
   ZnOH(Nta)-2     2.184e-10   9.908e-11    -9.661   -10.004    -0.343     (0)  
   Nta-3           1.562e-10   2.638e-11    -9.806   -10.579    -0.772     (0)  
   Zn(Nta)2-4      1.521e-10   6.442e-12    -9.818   -11.191    -1.373     (0)  
   H4(Nta)+        9.033e-12   6.939e-12   -11.044   -11.159    -0.115     (0)  
O(0)          0.000e+00
   O2              0.000e+00   0.000e+00   -53.202   -53.197     0.005     (0)  
Zn            2.000e-04
   Zn(Nta)-        1.070e-04   8.785e-05    -3.970    -4.056    -0.086     (0)  
   Zn+2            8.765e-05   3.976e-05    -4.057    -4.401    -0.343     (0)  
   ZnCl+           5.024e-06   4.098e-06    -5.299    -5.387    -0.088     (0)  
   ZnCl2           2.665e-07   2.665e-07    -6.574    -6.574     0.000     (0)  
   ZnCl3-          1.065e-08   8.685e-09    -7.973    -8.061    -0.088     (0)  
   ZnOHCl          8.547e-10   8.547e-10    -9.068    -9.068     0.000     (0)  
   ZnOH+           8.247e-10   6.335e-10    -9.084    -9.198    -0.115     (0)  
   ZnCl4-2         3.851e-10   1.782e-10    -9.414    -9.749    -0.335     (0)  
   ZnOH(Nta)-2     2.184e-10   9.908e-11    -9.661   -10.004    -0.343     (0)  
   Zn(Nta)2-4      1.521e-10   6.442e-12    -9.818   -11.191    -1.373     (0)  
   Zn(OH)2         1.599e-14   1.599e-14   -13.796   -13.796     0.000     (0)  
   Zn(OH)3-        1.663e-20   1.277e-20   -19.779   -19.894    -0.115     (0)  
   Zn(OH)4-2       2.327e-28   8.100e-29   -27.633   -28.092    -0.458     (0)  

------------------------------Saturation indices-------------------------------

  Phase               SI** log IAP   log K(298 K,   1 atm)

  Halite           -4.38     -2.77    1.60  NaCl
  O2(g)           -50.29     32.80   83.09  O2
  Zincite          -7.34      4.00   11.33  ZnO
  Zn(OH)2          -8.20      4.00   12.20  Zn(OH)2
  Zn(OH)2(am)      -8.48      4.00   12.47  Zn(OH)2
  Zn(OH)2(beta)    -7.76      4.00   11.75  Zn(OH)2
  Zn(OH)2(epsilon)  -7.54      4.00   11.53  Zn(OH)2
  Zn(OH)2(gamma)   -7.74      4.00   11.73  Zn(OH)2
  Zn2(OH)3Cl      -12.78      2.41   15.19  Zn2(OH)3Cl
  Zn5(OH)8Cl2     -29.68      8.82   38.50  Zn5(OH)8Cl2
  ZnCl2           -14.22     -7.17    7.05  ZnCl2
  Znmetal         -38.19    -12.40   25.79  Zn
  ZnO(active)      -7.19      4.00   11.19  ZnO

**For a gas, SI = log10(fugacity). Fugacity = pressure * phi / 1 atm.
  For ideal gases, phi = 1.

------------------
End of simulation.
------------------

-------------------------------------
Reading input data for simulation 10.
-------------------------------------

	SOLUTION 8
	pH		4.4
	Cl		0.05		mol/kgw
	Na		0.05		mol/kgw
	Zn	0.200 	mmol/kgw
	Nta  0.200 	mmol/kgw
	END
-------------------------------------------
Beginning of initial solution calculations.
-------------------------------------------

Initial solution 8.	

-----------------------------Solution composition------------------------------

	Elements           Molality       Moles

	Cl                5.000e-02   5.000e-02
	Na                5.000e-02   5.000e-02
	Nta               2.000e-04   2.000e-04
	Zn                2.000e-04   2.000e-04

----------------------------Description of solution----------------------------

                                       pH  =   4.400    
                                       pe  =   4.000    
                        Activity of water  =   0.998
                 Ionic strength (mol/kgw)  =   5.039e-02
                       Mass of water (kg)  =   1.000e+00
                 Total alkalinity (eq/kg)  =   7.194e-05
                         Temperature (°C)  =  25.00
                  Electrical balance (eq)  =  -7.194e-05
 Percent error, 100*(Cat-|An|)/(Cat+|An|)  =  -0.07
                               Iterations  =   9
                                  Total H  = 1.110138e+02
                                  Total O  = 5.550683e+01

----------------------------Distribution of species----------------------------

                                               Log       Log       Log    mole V
   Species          Molality    Activity  Molality  Activity     Gamma   cm³/mol

   H+              4.851e-05   3.981e-05    -4.314    -4.400    -0.086      0.00
   OH-             3.114e-10   2.525e-10    -9.507    -9.598    -0.091     (0)  
   H2O             5.551e+01   9.983e-01     1.744    -0.001     0.000     18.07
Cl            5.000e-02
   Cl-             5.000e-02   4.103e-02    -1.301    -1.387    -0.086     (0)  
   ZnCl+           4.234e-06   3.455e-06    -5.373    -5.462    -0.088     (0)  
   ZnCl2           2.247e-07   2.247e-07    -6.648    -6.648     0.000     (0)  
   ZnCl3-          8.976e-09   7.323e-09    -8.047    -8.135    -0.088     (0)  
   ZnOHCl          1.142e-09   1.142e-09    -8.942    -8.942     0.000     (0)  
   ZnCl4-2         3.246e-10   1.502e-10    -9.489    -9.823    -0.335     (0)  
H(0)          2.218e-20
   H2              1.109e-20   1.122e-20   -19.955   -19.950     0.005     (0)  
Na            5.000e-02
   Na+             5.000e-02   4.104e-02    -1.301    -1.387    -0.086     (0)  
Nta           2.000e-04
   Zn(Nta)-        1.217e-04   9.986e-05    -3.915    -4.001    -0.086     (0)  
   H(Nta)-2        7.711e-05   2.686e-05    -4.113    -4.571    -0.458     (0)  
   H2(Nta)-        1.218e-06   9.357e-07    -5.914    -6.029    -0.114     (0)  
   H3(Nta)         3.725e-09   3.725e-09    -8.429    -8.429     0.000     (0)  
   ZnOH(Nta)-2     3.934e-10   1.785e-10    -9.405    -9.748    -0.343     (0)  
   Zn(Nta)2-4      2.329e-10   9.875e-12    -9.633   -11.005    -1.373     (0)  
   Nta-3           2.105e-10   3.558e-11    -9.677   -10.449    -0.772     (0)  
   H4(Nta)+        1.930e-12   1.483e-12   -11.714   -11.829    -0.114     (0)  
O(0)          0.000e+00
   O2              0.000e+00   0.000e+00   -52.402   -52.397     0.005     (0)  
Zn            2.000e-04
   Zn(Nta)-        1.217e-04   9.986e-05    -3.915    -4.001    -0.086     (0)  
   Zn+2            7.386e-05   3.352e-05    -4.132    -4.475    -0.343     (0)  
   ZnCl+           4.234e-06   3.455e-06    -5.373    -5.462    -0.088     (0)  
   ZnCl2           2.247e-07   2.247e-07    -6.648    -6.648     0.000     (0)  
   ZnCl3-          8.976e-09   7.323e-09    -8.047    -8.135    -0.088     (0)  
   ZnOHCl          1.142e-09   1.142e-09    -8.942    -8.942     0.000     (0)  
   ZnOH+           1.102e-09   8.463e-10    -8.958    -9.072    -0.114     (0)  
   ZnOH(Nta)-2     3.934e-10   1.785e-10    -9.405    -9.748    -0.343     (0)  
   ZnCl4-2         3.246e-10   1.502e-10    -9.489    -9.823    -0.335     (0)  
   Zn(Nta)2-4      2.329e-10   9.875e-12    -9.633   -11.005    -1.373     (0)  
   Zn(OH)2         3.387e-14   3.387e-14   -13.470   -13.470     0.000     (0)  
   Zn(OH)3-        5.578e-20   4.286e-20   -19.253   -19.368    -0.114     (0)  
   Zn(OH)4-2       1.237e-27   4.308e-28   -26.908   -27.366    -0.458     (0)  

------------------------------Saturation indices-------------------------------

  Phase               SI** log IAP   log K(298 K,   1 atm)

  Halite           -4.38     -2.77    1.60  NaCl
  O2(g)           -49.49     33.60   83.09  O2
  Zincite          -7.01      4.32   11.33  ZnO
  Zn(OH)2          -7.88      4.32   12.20  Zn(OH)2
  Zn(OH)2(am)      -8.15      4.32   12.47  Zn(OH)2
  Zn(OH)2(beta)    -7.43      4.32   11.75  Zn(OH)2
  Zn(OH)2(epsilon)  -7.21      4.32   11.53  Zn(OH)2
  Zn(OH)2(gamma)   -7.41      4.32   11.73  Zn(OH)2
  Zn2(OH)3Cl      -12.33      2.86   15.19  Zn2(OH)3Cl
  Zn5(OH)8Cl2     -28.45     10.05   38.50  Zn5(OH)8Cl2
  ZnCl2           -14.30     -7.25    7.05  ZnCl2
  Znmetal         -38.26    -12.47   25.79  Zn
  ZnO(active)      -6.86      4.32   11.19  ZnO

**For a gas, SI = log10(fugacity). Fugacity = pressure * phi / 1 atm.
  For ideal gases, phi = 1.

------------------
End of simulation.
------------------

-------------------------------------
Reading input data for simulation 11.
-------------------------------------

	SOLUTION 9
	pH		4.6
	Cl		0.05		mol/kgw
	Na		0.05		mol/kgw
	Zn	0.200 	mmol/kgw
	Nta  0.200 	mmol/kgw
	END
-------------------------------------------
Beginning of initial solution calculations.
-------------------------------------------

Initial solution 9.	

-----------------------------Solution composition------------------------------

	Elements           Molality       Moles

	Cl                5.000e-02   5.000e-02
	Na                5.000e-02   5.000e-02
	Nta               2.000e-04   2.000e-04
	Zn                2.000e-04   2.000e-04

----------------------------Description of solution----------------------------

                                       pH  =   4.600    
                                       pe  =   4.000    
                        Activity of water  =   0.998
                 Ionic strength (mol/kgw)  =   5.034e-02
                       Mass of water (kg)  =   1.000e+00
                 Total alkalinity (eq/kg)  =   1.035e-04
                         Temperature (°C)  =  25.00
                  Electrical balance (eq)  =  -1.035e-04
 Percent error, 100*(Cat-|An|)/(Cat+|An|)  =  -0.10
                               Iterations  =   9
                                  Total H  = 1.110138e+02
                                  Total O  = 5.550683e+01

----------------------------Distribution of species----------------------------

                                               Log       Log       Log    mole V
   Species          Molality    Activity  Molality  Activity     Gamma   cm³/mol

   H+              3.060e-05   2.512e-05    -4.514    -4.600    -0.086      0.00
   OH-             4.934e-10   4.002e-10    -9.307    -9.398    -0.091     (0)  
   H2O             5.551e+01   9.983e-01     1.744    -0.001     0.000     18.07
Cl            5.000e-02
   Cl-             5.000e-02   4.104e-02    -1.301    -1.387    -0.086     (0)  
   ZnCl+           3.529e-06   2.879e-06    -5.452    -5.541    -0.088     (0)  
   ZnCl2           1.873e-07   1.873e-07    -6.728    -6.728     0.000     (0)  
   ZnCl3-          7.482e-09   6.104e-09    -8.126    -8.214    -0.088     (0)  
   ZnOHCl          1.508e-09   1.508e-09    -8.821    -8.821     0.000     (0)  
   ZnCl4-2         2.706e-10   1.253e-10    -9.568    -9.902    -0.334     (0)  
H(0)          8.831e-21
   H2              4.415e-21   4.467e-21   -20.355   -20.350     0.005     (0)  
Na            5.000e-02
   Na+             5.000e-02   4.104e-02    -1.301    -1.387    -0.086     (0)  
Nta           2.000e-04
   Zn(Nta)-        1.347e-04   1.106e-04    -3.871    -3.956    -0.086     (0)  
   H(Nta)-2        6.462e-05   2.252e-05    -4.190    -4.647    -0.458     (0)  
   H2(Nta)-        6.443e-07   4.950e-07    -6.191    -6.305    -0.114     (0)  
   H3(Nta)         1.243e-09   1.243e-09    -8.905    -8.905     0.000     (0)  
   ZnOH(Nta)-2     6.903e-10   3.133e-10    -9.161    -9.504    -0.343     (0)  
   Zn(Nta)2-4      3.424e-10   1.453e-11    -9.466   -10.838    -1.372     (0)  
   Nta-3           2.795e-10   4.728e-11    -9.554   -10.325    -0.772     (0)  
   H4(Nta)+        4.065e-13   3.123e-13   -12.391   -12.505    -0.114     (0)  
O(0)          0.000e+00
   O2              0.000e+00   0.000e+00   -51.602   -51.597     0.005     (0)  
Zn            2.000e-04
   Zn(Nta)-        1.347e-04   1.106e-04    -3.871    -3.956    -0.086     (0)  
   Zn+2            6.154e-05   2.793e-05    -4.211    -4.554    -0.343     (0)  
   ZnCl+           3.529e-06   2.879e-06    -5.452    -5.541    -0.088     (0)  
   ZnCl2           1.873e-07   1.873e-07    -6.728    -6.728     0.000     (0)  
   ZnCl3-          7.482e-09   6.104e-09    -8.126    -8.214    -0.088     (0)  
   ZnOHCl          1.508e-09   1.508e-09    -8.821    -8.821     0.000     (0)  
   ZnOH+           1.455e-09   1.118e-09    -8.837    -8.952    -0.114     (0)  
   ZnOH(Nta)-2     6.903e-10   3.133e-10    -9.161    -9.504    -0.343     (0)  
   Zn(Nta)2-4      3.424e-10   1.453e-11    -9.466   -10.838    -1.372     (0)  
   ZnCl4-2         2.706e-10   1.253e-10    -9.568    -9.902    -0.334     (0)  
   Zn(OH)2         7.089e-14   7.089e-14   -13.149   -13.149     0.000     (0)  
   Zn(OH)3-        1.851e-19   1.422e-19   -18.733   -18.847    -0.114     (0)  
   Zn(OH)4-2       6.499e-27   2.265e-27   -26.187   -26.645    -0.458     (0)  

------------------------------Saturation indices-------------------------------

  Phase               SI** log IAP   log K(298 K,   1 atm)

  Halite           -4.38     -2.77    1.60  NaCl
  O2(g)           -48.69     34.40   83.09  O2
  Zincite          -6.69      4.65   11.33  ZnO
  Zn(OH)2          -7.56      4.64   12.20  Zn(OH)2
  Zn(OH)2(am)      -7.83      4.64   12.47  Zn(OH)2
  Zn(OH)2(beta)    -7.11      4.64   11.75  Zn(OH)2
  Zn(OH)2(epsilon)  -6.89      4.64   11.53  Zn(OH)2
  Zn(OH)2(gamma)   -7.09      4.64   11.73  Zn(OH)2
  Zn2(OH)3Cl      -11.89      3.30   15.19  Zn2(OH)3Cl
  Zn5(OH)8Cl2     -27.25     11.25   38.50  Zn5(OH)8Cl2
  ZnCl2           -14.38     -7.33    7.05  ZnCl2
  Znmetal         -38.34    -12.55   25.79  Zn
  ZnO(active)      -6.54      4.65   11.19  ZnO

**For a gas, SI = log10(fugacity). Fugacity = pressure * phi / 1 atm.
  For ideal gases, phi = 1.

------------------
End of simulation.
------------------

-------------------------------------
Reading input data for simulation 12.
-------------------------------------

	SOLUTION 10
	pH		4.8
	Cl		0.05		mol/kgw
	Na		0.05		mol/kgw
	Zn	0.200 	mmol/kgw
	Nta  0.200 	mmol/kgw
	END
-------------------------------------------
Beginning of initial solution calculations.
-------------------------------------------

Initial solution 10.	

-----------------------------Solution composition------------------------------

	Elements           Molality       Moles

	Cl                5.000e-02   5.000e-02
	Na                5.000e-02   5.000e-02
	Nta               2.000e-04   2.000e-04
	Zn                2.000e-04   2.000e-04

----------------------------Description of solution----------------------------

                                       pH  =   4.800    
                                       pe  =   4.000    
                        Activity of water  =   0.998
                 Ionic strength (mol/kgw)  =   5.029e-02
                       Mass of water (kg)  =   1.000e+00
                 Total alkalinity (eq/kg)  =   1.265e-04
                         Temperature (°C)  =  25.00
                  Electrical balance (eq)  =  -1.265e-04
 Percent error, 100*(Cat-|An|)/(Cat+|An|)  =  -0.13
                               Iterations  =  10
                                  Total H  = 1.110137e+02
                                  Total O  = 5.550683e+01

----------------------------Distribution of species----------------------------

                                               Log       Log       Log    mole V
   Species          Molality    Activity  Molality  Activity     Gamma   cm³/mol

   H+              1.931e-05   1.585e-05    -4.714    -4.800    -0.086      0.00
   OH-             7.820e-10   6.342e-10    -9.107    -9.198    -0.091     (0)  
   H2O             5.551e+01   9.983e-01     1.744    -0.001     0.000     18.07
Cl            5.000e-02
   Cl-             5.000e-02   4.104e-02    -1.301    -1.387    -0.086     (0)  
   ZnCl+           2.914e-06   2.377e-06    -5.536    -5.624    -0.088     (0)  
   ZnCl2           1.546e-07   1.546e-07    -6.811    -6.811     0.000     (0)  
   ZnCl3-          6.178e-09   5.041e-09    -8.209    -8.297    -0.088     (0)  
   ZnOHCl          1.974e-09   1.974e-09    -8.705    -8.705     0.000     (0)  
   ZnCl4-2         2.234e-10   1.034e-10    -9.651    -9.985    -0.334     (0)  
H(0)          3.516e-21
   H2              1.758e-21   1.778e-21   -20.755   -20.750     0.005     (0)  
Na            5.000e-02
   Na+             5.000e-02   4.104e-02    -1.301    -1.387    -0.086     (0)  
Nta           2.000e-04
   Zn(Nta)-        1.461e-04   1.199e-04    -3.835    -3.921    -0.086     (0)  
   H(Nta)-2        5.353e-05   1.867e-05    -4.271    -4.729    -0.458     (0)  
   H2(Nta)-        3.369e-07   2.589e-07    -6.473    -6.587    -0.114     (0)  
   ZnOH(Nta)-2     1.186e-09   5.386e-10    -8.926    -9.269    -0.343     (0)  
   Zn(Nta)2-4      4.873e-10   2.071e-11    -9.312   -10.684    -1.372     (0)  
   H3(Nta)         4.103e-10   4.103e-10    -9.387    -9.387     0.000     (0)  
   Nta-3           3.670e-10   6.210e-11    -9.435   -10.207    -0.772     (0)  
   H4(Nta)+        8.462e-14   6.503e-14   -13.073   -13.187    -0.114     (0)  
O(0)          0.000e+00
   O2              0.000e+00   0.000e+00   -50.802   -50.797     0.005     (0)  
Zn            2.000e-04
   Zn(Nta)-        1.461e-04   1.199e-04    -3.835    -3.921    -0.086     (0)  
   Zn+2            5.079e-05   2.306e-05    -4.294    -4.637    -0.343     (0)  
   ZnCl+           2.914e-06   2.377e-06    -5.536    -5.624    -0.088     (0)  
   ZnCl2           1.546e-07   1.546e-07    -6.811    -6.811     0.000     (0)  
   ZnCl3-          6.178e-09   5.041e-09    -8.209    -8.297    -0.088     (0)  
   ZnOHCl          1.974e-09   1.974e-09    -8.705    -8.705     0.000     (0)  
   ZnOH+           1.903e-09   1.463e-09    -8.720    -8.835    -0.114     (0)  
   ZnOH(Nta)-2     1.186e-09   5.386e-10    -8.926    -9.269    -0.343     (0)  
   Zn(Nta)2-4      4.873e-10   2.071e-11    -9.312   -10.684    -1.372     (0)  
   ZnCl4-2         2.234e-10   1.034e-10    -9.651    -9.985    -0.334     (0)  
   Zn(OH)2         1.470e-13   1.470e-13   -12.833   -12.833     0.000     (0)  
   Zn(OH)3-        6.082e-19   4.674e-19   -18.216   -18.330    -0.114     (0)  
   Zn(OH)4-2       3.384e-26   1.180e-26   -25.471   -25.928    -0.458     (0)  

------------------------------Saturation indices-------------------------------

  Phase               SI** log IAP   log K(298 K,   1 atm)

  Halite           -4.38     -2.77    1.60  NaCl
  O2(g)           -47.89     35.20   83.09  O2
  Zincite          -6.37      4.96   11.33  ZnO
  Zn(OH)2          -7.24      4.96   12.20  Zn(OH)2
  Zn(OH)2(am)      -7.51      4.96   12.47  Zn(OH)2
  Zn(OH)2(beta)    -6.79      4.96   11.75  Zn(OH)2
  Zn(OH)2(epsilon)  -6.57      4.96   11.53  Zn(OH)2
  Zn(OH)2(gamma)   -6.77      4.96   11.73  Zn(OH)2
  Zn2(OH)3Cl      -11.45      3.74   15.19  Zn2(OH)3Cl
  Zn5(OH)8Cl2     -26.07     12.43   38.50  Zn5(OH)8Cl2
  ZnCl2           -14.46     -7.41    7.05  ZnCl2
  Znmetal         -38.43    -12.64   25.79  Zn
  ZnO(active)      -6.23      4.96   11.19  ZnO

**For a gas, SI = log10(fugacity). Fugacity = pressure * phi / 1 atm.
  For ideal gases, phi = 1.

------------------
End of simulation.
------------------

-------------------------------------
Reading input data for simulation 13.
-------------------------------------

	SOLUTION 11
	pH		5.0
	Cl		0.05		mol/kgw
	Na		0.05		mol/kgw
	Zn	0.200 	mmol/kgw
	Nta  0.200 	mmol/kgw
	END
-------------------------------------------
Beginning of initial solution calculations.
-------------------------------------------

Initial solution 11.	

-----------------------------Solution composition------------------------------

	Elements           Molality       Moles

	Cl                5.000e-02   5.000e-02
	Na                5.000e-02   5.000e-02
	Nta               2.000e-04   2.000e-04
	Zn                2.000e-04   2.000e-04

----------------------------Description of solution----------------------------

                                       pH  =   5.000    
                                       pe  =   4.000    
                        Activity of water  =   0.998
                 Ionic strength (mol/kgw)  =   5.026e-02
                       Mass of water (kg)  =   1.000e+00
                 Total alkalinity (eq/kg)  =   1.435e-04
                         Temperature (°C)  =  25.00
                  Electrical balance (eq)  =  -1.435e-04
 Percent error, 100*(Cat-|An|)/(Cat+|An|)  =  -0.14
                               Iterations  =  10
                                  Total H  = 1.110137e+02
                                  Total O  = 5.550683e+01

----------------------------Distribution of species----------------------------

                                               Log       Log       Log    mole V
   Species          Molality    Activity  Molality  Activity     Gamma   cm³/mol

   H+              1.218e-05   1.000e-05    -4.914    -5.000    -0.086      0.00
   OH-             1.239e-09   1.005e-09    -8.907    -8.998    -0.091     (0)  
   H2O             5.551e+01   9.983e-01     1.744    -0.001     0.000     18.07
Cl            5.000e-02
   Cl-             5.000e-02   4.104e-02    -1.301    -1.387    -0.086     (0)  
   ZnCl+           2.387e-06   1.948e-06    -5.622    -5.710    -0.088     (0)  
   ZnCl2           1.267e-07   1.267e-07    -6.897    -6.897     0.000     (0)  
   ZnCl3-          5.063e-09   4.131e-09    -8.296    -8.384    -0.088     (0)  
   ZnOHCl          2.564e-09   2.564e-09    -8.591    -8.591     0.000     (0)  
   ZnCl4-2         1.831e-10   8.478e-11    -9.737   -10.072    -0.334     (0)  
H(0)          1.400e-21
   H2              6.998e-22   7.079e-22   -21.155   -21.150     0.005     (0)  
Na            5.000e-02
   Na+             5.000e-02   4.105e-02    -1.301    -1.387    -0.086     (0)  
Nta           2.000e-04
   Zn(Nta)-        1.559e-04   1.279e-04    -3.807    -3.893    -0.086     (0)  
   H(Nta)-2        4.396e-05   1.534e-05    -4.357    -4.814    -0.457     (0)  
   H2(Nta)-        1.746e-07   1.342e-07    -6.758    -6.872    -0.114     (0)  
   ZnOH(Nta)-2     2.005e-09   9.105e-10    -8.698    -9.041    -0.343     (0)  
   Zn(Nta)2-4      6.762e-10   2.876e-11    -9.170   -10.541    -1.371     (0)  
   Nta-3           4.776e-10   8.085e-11    -9.321   -10.092    -0.771     (0)  
   H3(Nta)         1.342e-10   1.342e-10    -9.872    -9.872     0.000     (0)  
   H4(Nta)+        1.746e-14   1.342e-14   -13.758   -13.872    -0.114     (0)  
O(0)          0.000e+00
   O2              0.000e+00   0.000e+00   -50.002   -49.997     0.005     (0)  
Zn            2.000e-04
   Zn(Nta)-        1.559e-04   1.279e-04    -3.807    -3.893    -0.086     (0)  
   Zn+2            4.161e-05   1.890e-05    -4.381    -4.724    -0.343     (0)  
   ZnCl+           2.387e-06   1.948e-06    -5.622    -5.710    -0.088     (0)  
   ZnCl2           1.267e-07   1.267e-07    -6.897    -6.897     0.000     (0)  
   ZnCl3-          5.063e-09   4.131e-09    -8.296    -8.384    -0.088     (0)  
   ZnOHCl          2.564e-09   2.564e-09    -8.591    -8.591     0.000     (0)  
   ZnOH+           2.471e-09   1.899e-09    -8.607    -8.721    -0.114     (0)  
   ZnOH(Nta)-2     2.005e-09   9.105e-10    -8.698    -9.041    -0.343     (0)  
   Zn(Nta)2-4      6.762e-10   2.876e-11    -9.170   -10.541    -1.371     (0)  
   ZnCl4-2         1.831e-10   8.478e-11    -9.737   -10.072    -0.334     (0)  
   Zn(OH)2         3.026e-13   3.026e-13   -12.519   -12.519     0.000     (0)  
   Zn(OH)3-        1.984e-18   1.525e-18   -17.703   -17.817    -0.114     (0)  
   Zn(OH)4-2       1.749e-25   6.101e-26   -24.757   -25.215    -0.457     (0)  

------------------------------Saturation indices-------------------------------

  Phase               SI** log IAP   log K(298 K,   1 atm)

  Halite           -4.38     -2.77    1.60  NaCl
  O2(g)           -47.09     36.00   83.09  O2
  Zincite          -6.06      5.28   11.33  ZnO
  Zn(OH)2          -6.93      5.27   12.20  Zn(OH)2
  Zn(OH)2(am)      -7.20      5.27   12.47  Zn(OH)2
  Zn(OH)2(beta)    -6.48      5.27   11.75  Zn(OH)2
  Zn(OH)2(epsilon)  -6.26      5.27   11.53  Zn(OH)2
  Zn(OH)2(gamma)   -6.46      5.27   11.73  Zn(OH)2
  Zn2(OH)3Cl      -11.03      4.16   15.19  Zn2(OH)3Cl
  Zn5(OH)8Cl2     -24.90     13.60   38.50  Zn5(OH)8Cl2
  ZnCl2           -14.55     -7.50    7.05  ZnCl2
  Znmetal         -38.51    -12.72   25.79  Zn
  ZnO(active)      -5.91      5.28   11.19  ZnO

**For a gas, SI = log10(fugacity). Fugacity = pressure * phi / 1 atm.
  For ideal gases, phi = 1.

------------------
End of simulation.
------------------

-------------------------------------
Reading input data for simulation 14.
-------------------------------------

	SOLUTION 12
	pH		5.2
	Cl		0.05		mol/kgw
	Na		0.05		mol/kgw
	Zn	0.200 	mmol/kgw
	Nta  0.200 	mmol/kgw
	END
-------------------------------------------
Beginning of initial solution calculations.
-------------------------------------------

Initial solution 12.	

-----------------------------Solution composition------------------------------

	Elements           Molality       Moles

	Cl                5.000e-02   5.000e-02
	Na                5.000e-02   5.000e-02
	Nta               2.000e-04   2.000e-04
	Zn                2.000e-04   2.000e-04

----------------------------Description of solution----------------------------

                                       pH  =   5.200    
                                       pe  =   4.000    
                        Activity of water  =   0.998
                 Ionic strength (mol/kgw)  =   5.023e-02
                       Mass of water (kg)  =   1.000e+00
                 Total alkalinity (eq/kg)  =   1.563e-04
                         Temperature (°C)  =  25.00
                  Electrical balance (eq)  =  -1.563e-04
 Percent error, 100*(Cat-|An|)/(Cat+|An|)  =  -0.16
                               Iterations  =   9
                                  Total H  = 1.110137e+02
                                  Total O  = 5.550683e+01

----------------------------Distribution of species----------------------------

                                               Log       Log       Log    mole V
   Species          Molality    Activity  Molality  Activity     Gamma   cm³/mol

   H+              7.686e-06   6.310e-06    -5.114    -5.200    -0.086      0.00
   OH-             1.964e-09   1.593e-09    -8.707    -8.798    -0.091     (0)  
   H2O             5.551e+01   9.983e-01     1.744    -0.001     0.000     18.07
Cl            5.000e-02
   Cl-             5.000e-02   4.105e-02    -1.301    -1.387    -0.086     (0)  
   ZnCl+           1.944e-06   1.586e-06    -5.711    -5.800    -0.088     (0)  
   ZnCl2           1.032e-07   1.032e-07    -6.986    -6.986     0.000     (0)  
   ZnCl3-          4.123e-09   3.364e-09    -8.385    -8.473    -0.088     (0)  
   ZnOHCl          3.309e-09   3.309e-09    -8.480    -8.480     0.000     (0)  
   ZnCl4-2         1.491e-10   6.905e-11    -9.827   -10.161    -0.334     (0)  
H(0)          5.572e-22
   H2              2.786e-22   2.818e-22   -21.555   -21.550     0.005     (0)  
Na            5.000e-02
   Na+             5.000e-02   4.105e-02    -1.301    -1.387    -0.086     (0)  
Nta           2.000e-04
   Zn(Nta)-        1.641e-04   1.347e-04    -3.785    -3.871    -0.086     (0)  
   H(Nta)-2        3.584e-05   1.251e-05    -4.446    -4.903    -0.457     (0)  
   H2(Nta)-        8.984e-08   6.905e-08    -7.047    -7.161    -0.114     (0)  
   ZnOH(Nta)-2     3.345e-09   1.519e-09    -8.476    -8.818    -0.343     (0)  
   Zn(Nta)2-4      9.195e-10   3.913e-11    -9.036   -10.407    -1.371     (0)  
   Nta-3           6.172e-10   1.045e-10    -9.210    -9.981    -0.771     (0)  
   H3(Nta)         4.357e-11   4.357e-11   -10.361   -10.361     0.000     (0)  
   H4(Nta)+        3.577e-15   2.749e-15   -14.447   -14.561    -0.114     (0)  
O(0)          0.000e+00
   O2              0.000e+00   0.000e+00   -49.202   -49.197     0.005     (0)  
Zn            2.000e-04
   Zn(Nta)-        1.641e-04   1.347e-04    -3.785    -3.871    -0.086     (0)  
   Zn+2            3.388e-05   1.539e-05    -4.470    -4.813    -0.343     (0)  
   ZnCl+           1.944e-06   1.586e-06    -5.711    -5.800    -0.088     (0)  
   ZnCl2           1.032e-07   1.032e-07    -6.986    -6.986     0.000     (0)  
   ZnCl3-          4.123e-09   3.364e-09    -8.385    -8.473    -0.088     (0)  
   ZnOH(Nta)-2     3.345e-09   1.519e-09    -8.476    -8.818    -0.343     (0)  
   ZnOHCl          3.309e-09   3.309e-09    -8.480    -8.480     0.000     (0)  
   ZnOH+           3.189e-09   2.451e-09    -8.496    -8.611    -0.114     (0)  
   Zn(Nta)2-4      9.195e-10   3.913e-11    -9.036   -10.407    -1.371     (0)  
   ZnCl4-2         1.491e-10   6.905e-11    -9.827   -10.161    -0.334     (0)  
   Zn(OH)2         6.189e-13   6.189e-13   -12.208   -12.208     0.000     (0)  
   Zn(OH)3-        6.430e-18   4.942e-18   -17.192   -17.306    -0.114     (0)  
   Zn(OH)4-2       8.982e-25   3.134e-25   -24.047   -24.504    -0.457     (0)  

------------------------------Saturation indices-------------------------------

  Phase               SI** log IAP   log K(298 K,   1 atm)

  Halite           -4.38     -2.77    1.60  NaCl
  O2(g)           -46.29     36.80   83.09  O2
  Zincite          -5.75      5.59   11.33  ZnO
  Zn(OH)2          -6.61      5.59   12.20  Zn(OH)2
  Zn(OH)2(am)      -6.89      5.59   12.47  Zn(OH)2
  Zn(OH)2(beta)    -6.17      5.59   11.75  Zn(OH)2
  Zn(OH)2(epsilon)  -5.95      5.59   11.53  Zn(OH)2
  Zn(OH)2(gamma)   -6.15      5.59   11.73  Zn(OH)2
  Zn2(OH)3Cl      -10.61      4.59   15.19  Zn2(OH)3Cl
  Zn5(OH)8Cl2     -23.74     14.76   38.50  Zn5(OH)8Cl2
  ZnCl2           -14.64     -7.59    7.05  ZnCl2
  Znmetal         -38.60    -12.81   25.79  Zn
  ZnO(active)      -5.60      5.59   11.19  ZnO

**For a gas, SI = log10(fugacity). Fugacity = pressure * phi / 1 atm.
  For ideal gases, phi = 1.

------------------
End of simulation.
------------------

-------------------------------------
Reading input data for simulation 15.
-------------------------------------

	SOLUTION 13
	pH		5.4
	Cl		0.05		mol/kgw
	Na		0.05		mol/kgw
	Zn	0.200 	mmol/kgw
	Nta  0.200 	mmol/kgw
	END
-------------------------------------------
Beginning of initial solution calculations.
-------------------------------------------

Initial solution 13.	

-----------------------------Solution composition------------------------------

	Elements           Molality       Moles

	Cl                5.000e-02   5.000e-02
	Na                5.000e-02   5.000e-02
	Nta               2.000e-04   2.000e-04
	Zn                2.000e-04   2.000e-04

----------------------------Description of solution----------------------------

                                       pH  =   5.400    
                                       pe  =   4.000    
                        Activity of water  =   0.998
                 Ionic strength (mol/kgw)  =   5.020e-02
                       Mass of water (kg)  =   1.000e+00
                 Total alkalinity (eq/kg)  =   1.660e-04
                         Temperature (°C)  =  25.00
                  Electrical balance (eq)  =  -1.660e-04
 Percent error, 100*(Cat-|An|)/(Cat+|An|)  =  -0.17
                               Iterations  =   9
                                  Total H  = 1.110137e+02
                                  Total O  = 5.550683e+01

----------------------------Distribution of species----------------------------

                                               Log       Log       Log    mole V
   Species          Molality    Activity  Molality  Activity     Gamma   cm³/mol

   H+              4.849e-06   3.981e-06    -5.314    -5.400    -0.086      0.00
   OH-             3.113e-09   2.525e-09    -8.507    -8.598    -0.091     (0)  
   H2O             5.551e+01   9.983e-01     1.744    -0.001     0.000     18.07
Cl            5.000e-02
   Cl-             5.000e-02   4.105e-02    -1.301    -1.387    -0.086     (0)  
   ZnCl+           1.575e-06   1.285e-06    -5.803    -5.891    -0.088     (0)  
   ZnCl2           8.362e-08   8.362e-08    -7.078    -7.078     0.000     (0)  
   ZnOHCl          4.249e-09   4.249e-09    -8.372    -8.372     0.000     (0)  
   ZnCl3-          3.341e-09   2.726e-09    -8.476    -8.564    -0.088     (0)  
   ZnCl4-2         1.208e-10   5.596e-11    -9.918   -10.252    -0.334     (0)  
H(0)          2.218e-22
   H2              1.109e-22   1.122e-22   -21.955   -21.950     0.005     (0)  
Na            5.000e-02
   Na+             5.000e-02   4.105e-02    -1.301    -1.387    -0.086     (0)  
Nta           2.000e-04
   Zn(Nta)-        1.709e-04   1.403e-04    -3.767    -3.853    -0.086     (0)  
   H(Nta)-2        2.907e-05   1.015e-05    -4.537    -4.994    -0.457     (0)  
   H2(Nta)-        4.598e-08   3.534e-08    -7.337    -7.452    -0.114     (0)  
   ZnOH(Nta)-2     5.520e-09   2.508e-09    -8.258    -8.601    -0.343     (0)  
   Zn(Nta)2-4      1.231e-09   5.240e-11    -8.910   -10.281    -1.371     (0)  
   Nta-3           7.932e-10   1.344e-10    -9.101    -9.872    -0.771     (0)  
   H3(Nta)         1.407e-11   1.407e-11   -10.852   -10.852     0.000     (0)  
   H4(Nta)+        7.287e-16   5.601e-16   -15.137   -15.252    -0.114     (0)  
O(0)          0.000e+00
   O2              0.000e+00   0.000e+00   -48.402   -48.397     0.005     (0)  
Zn            2.000e-04
   Zn(Nta)-        1.709e-04   1.403e-04    -3.767    -3.853    -0.086     (0)  
   Zn+2            2.744e-05   1.247e-05    -4.562    -4.904    -0.343     (0)  
   ZnCl+           1.575e-06   1.285e-06    -5.803    -5.891    -0.088     (0)  
   ZnCl2           8.362e-08   8.362e-08    -7.078    -7.078     0.000     (0)  
   ZnOH(Nta)-2     5.520e-09   2.508e-09    -8.258    -8.601    -0.343     (0)  
   ZnOHCl          4.249e-09   4.249e-09    -8.372    -8.372     0.000     (0)  
   ZnOH+           4.095e-09   3.148e-09    -8.388    -8.502    -0.114     (0)  
   ZnCl3-          3.341e-09   2.726e-09    -8.476    -8.564    -0.088     (0)  
   Zn(Nta)2-4      1.231e-09   5.240e-11    -8.910   -10.281    -1.371     (0)  
   ZnCl4-2         1.208e-10   5.596e-11    -9.918   -10.252    -0.334     (0)  
   Zn(OH)2         1.260e-12   1.260e-12   -11.900   -11.900     0.000     (0)  
   Zn(OH)3-        2.074e-17   1.594e-17   -16.683   -16.797    -0.114     (0)  
   Zn(OH)4-2       4.591e-24   1.602e-24   -23.338   -23.795    -0.457     (0)  

------------------------------Saturation indices-------------------------------

  Phase               SI** log IAP   log K(298 K,   1 atm)

  Halite           -4.38     -2.77    1.60  NaCl
  O2(g)           -45.49     37.60   83.09  O2
  Zincite          -5.44      5.89   11.33  ZnO
  Zn(OH)2          -6.31      5.89   12.20  Zn(OH)2
  Zn(OH)2(am)      -6.58      5.89   12.47  Zn(OH)2
  Zn(OH)2(beta)    -5.86      5.89   11.75  Zn(OH)2
  Zn(OH)2(epsilon)  -5.64      5.89   11.53  Zn(OH)2
  Zn(OH)2(gamma)   -5.84      5.89   11.73  Zn(OH)2
  Zn2(OH)3Cl      -10.19      5.00   15.19  Zn2(OH)3Cl
  Zn5(OH)8Cl2     -22.60     15.90   38.50  Zn5(OH)8Cl2
  ZnCl2           -14.73     -7.68    7.05  ZnCl2
  Znmetal         -38.69    -12.90   25.79  Zn
  ZnO(active)      -5.29      5.89   11.19  ZnO

**For a gas, SI = log10(fugacity). Fugacity = pressure * phi / 1 atm.
  For ideal gases, phi = 1.

------------------
End of simulation.
------------------

-------------------------------------
Reading input data for simulation 16.
-------------------------------------

	SOLUTION 14
	pH		5.6
	Cl		0.05		mol/kgw
	Na		0.05		mol/kgw
	Zn	0.200 	mmol/kgw
	Nta  0.200 	mmol/kgw
	END
-------------------------------------------
Beginning of initial solution calculations.
-------------------------------------------

Initial solution 14.	

-----------------------------Solution composition------------------------------

	Elements           Molality       Moles

	Cl                5.000e-02   5.000e-02
	Na                5.000e-02   5.000e-02
	Nta               2.000e-04   2.000e-04
	Zn                2.000e-04   2.000e-04

----------------------------Description of solution----------------------------

                                       pH  =   5.600    
                                       pe  =   4.000    
                        Activity of water  =   0.998
                 Ionic strength (mol/kgw)  =   5.018e-02
                       Mass of water (kg)  =   1.000e+00
                 Total alkalinity (eq/kg)  =   1.734e-04
                         Temperature (°C)  =  25.00
                  Electrical balance (eq)  =  -1.734e-04
 Percent error, 100*(Cat-|An|)/(Cat+|An|)  =  -0.17
                               Iterations  =   8
                                  Total H  = 1.110137e+02
                                  Total O  = 5.550683e+01

----------------------------Distribution of species----------------------------

                                               Log       Log       Log    mole V
   Species          Molality    Activity  Molality  Activity     Gamma   cm³/mol

   H+              3.060e-06   2.512e-06    -5.514    -5.600    -0.086      0.00
   OH-             4.933e-09   4.002e-09    -8.307    -8.398    -0.091     (0)  
   H2O             5.551e+01   9.983e-01     1.744    -0.001     0.000     18.07
Cl            5.000e-02
   Cl-             5.000e-02   4.105e-02    -1.301    -1.387    -0.086     (0)  
   ZnCl+           1.271e-06   1.037e-06    -5.896    -5.984    -0.088     (0)  
   ZnCl2           6.748e-08   6.748e-08    -7.171    -7.171     0.000     (0)  
   ZnOHCl          5.434e-09   5.434e-09    -8.265    -8.265     0.000     (0)  
   ZnCl3-          2.696e-09   2.200e-09    -8.569    -8.658    -0.088     (0)  
   ZnCl4-2         9.746e-11   4.516e-11   -10.011   -10.345    -0.334     (0)  
H(0)          8.831e-23
   H2              4.416e-23   4.467e-23   -22.355   -22.350     0.005     (0)  
Na            5.000e-02
   Na+             5.000e-02   4.105e-02    -1.301    -1.387    -0.086     (0)  
Nta           2.000e-04
   Zn(Nta)-        1.765e-04   1.449e-04    -3.753    -3.839    -0.086     (0)  
   H(Nta)-2        2.347e-05   8.194e-06    -4.630    -5.087    -0.457     (0)  
   H2(Nta)-        2.343e-08   1.801e-08    -7.630    -7.745    -0.114     (0)  
   ZnOH(Nta)-2     9.036e-09   4.105e-09    -8.044    -8.387    -0.343     (0)  
   Zn(Nta)2-4      1.626e-09   6.927e-11    -8.789   -10.159    -1.371     (0)  
   Nta-3           1.015e-09   1.720e-10    -8.994    -9.765    -0.771     (0)  
   H3(Nta)         4.524e-12   4.524e-12   -11.345   -11.345     0.000     (0)  
   H4(Nta)+        1.478e-16   1.136e-16   -15.830   -15.945    -0.114     (0)  
O(0)          0.000e+00
   O2              0.000e+00   0.000e+00   -47.602   -47.597     0.005     (0)  
Zn            2.000e-04
   Zn(Nta)-        1.765e-04   1.449e-04    -3.753    -3.839    -0.086     (0)  
   Zn+2            2.214e-05   1.006e-05    -4.655    -4.997    -0.343     (0)  
   ZnCl+           1.271e-06   1.037e-06    -5.896    -5.984    -0.088     (0)  
   ZnCl2           6.748e-08   6.748e-08    -7.171    -7.171     0.000     (0)  
   ZnOH(Nta)-2     9.036e-09   4.105e-09    -8.044    -8.387    -0.343     (0)  
   ZnOHCl          5.434e-09   5.434e-09    -8.265    -8.265     0.000     (0)  
   ZnOH+           5.237e-09   4.026e-09    -8.281    -8.395    -0.114     (0)  
   ZnCl3-          2.696e-09   2.200e-09    -8.569    -8.658    -0.088     (0)  
   Zn(Nta)2-4      1.626e-09   6.927e-11    -8.789   -10.159    -1.371     (0)  
   ZnCl4-2         9.746e-11   4.516e-11   -10.011   -10.345    -0.334     (0)  
   Zn(OH)2         2.553e-12   2.553e-12   -11.593   -11.593     0.000     (0)  
   Zn(OH)3-        6.662e-17   5.121e-17   -16.176   -16.291    -0.114     (0)  
   Zn(OH)4-2       2.337e-23   8.159e-24   -22.631   -23.088    -0.457     (0)  

------------------------------Saturation indices-------------------------------

  Phase               SI** log IAP   log K(298 K,   1 atm)

  Halite           -4.38     -2.77    1.60  NaCl
  O2(g)           -44.69     38.40   83.09  O2
  Zincite          -5.13      6.20   11.33  ZnO
  Zn(OH)2          -6.00      6.20   12.20  Zn(OH)2
  Zn(OH)2(am)      -6.27      6.20   12.47  Zn(OH)2
  Zn(OH)2(beta)    -5.55      6.20   11.75  Zn(OH)2
  Zn(OH)2(epsilon)  -5.33      6.20   11.53  Zn(OH)2
  Zn(OH)2(gamma)   -5.53      6.20   11.73  Zn(OH)2
  Zn2(OH)3Cl       -9.77      5.42   15.19  Zn2(OH)3Cl
  Zn5(OH)8Cl2     -21.47     17.03   38.50  Zn5(OH)8Cl2
  ZnCl2           -14.82     -7.77    7.05  ZnCl2
  Znmetal         -38.79    -13.00   25.79  Zn
  ZnO(active)      -4.99      6.20   11.19  ZnO

**For a gas, SI = log10(fugacity). Fugacity = pressure * phi / 1 atm.
  For ideal gases, phi = 1.

------------------
End of simulation.
------------------

-------------------------------------
Reading input data for simulation 17.
-------------------------------------

	SOLUTION 15
	pH		5.8
	Cl		0.05		mol/kgw
	Na		0.05		mol/kgw
	Zn	0.200 	mmol/kgw
	Nta  0.200 	mmol/kgw
	END
-------------------------------------------
Beginning of initial solution calculations.
-------------------------------------------

Initial solution 15.	

-----------------------------Solution composition------------------------------

	Elements           Molality       Moles

	Cl                5.000e-02   5.000e-02
	Na                5.000e-02   5.000e-02
	Nta               2.000e-04   2.000e-04
	Zn                2.000e-04   2.000e-04

----------------------------Description of solution----------------------------

                                       pH  =   5.800    
                                       pe  =   4.000    
                        Activity of water  =   0.998
                 Ionic strength (mol/kgw)  =   5.016e-02
                       Mass of water (kg)  =   1.000e+00
                 Total alkalinity (eq/kg)  =   1.792e-04
                         Temperature (°C)  =  25.00
                  Electrical balance (eq)  =  -1.792e-04
 Percent error, 100*(Cat-|An|)/(Cat+|An|)  =  -0.18
                               Iterations  =   7
                                  Total H  = 1.110137e+02
                                  Total O  = 5.550683e+01

----------------------------Distribution of species----------------------------

                                               Log       Log       Log    mole V
   Species          Molality    Activity  Molality  Activity     Gamma   cm³/mol

   H+              1.930e-06   1.585e-06    -5.714    -5.800    -0.086      0.00
   OH-             7.818e-09   6.342e-09    -8.107    -8.198    -0.091     (0)  
   H2O             5.551e+01   9.983e-01     1.744    -0.001     0.000     18.07
Cl            5.000e-02
   Cl-             5.000e-02   4.105e-02    -1.301    -1.387    -0.086     (0)  
   ZnCl+           1.022e-06   8.343e-07    -5.990    -6.079    -0.088     (0)  
   ZnCl2           5.428e-08   5.428e-08    -7.265    -7.265     0.000     (0)  
   ZnOHCl          6.928e-09   6.928e-09    -8.159    -8.159     0.000     (0)  
   ZnCl3-          2.169e-09   1.770e-09    -8.664    -8.752    -0.088     (0)  
   ZnCl4-2         7.840e-11   3.633e-11   -10.106   -10.440    -0.334     (0)  
H(0)          3.516e-23
   H2              1.758e-23   1.778e-23   -22.755   -22.750     0.005     (0)  
Na            5.000e-02
   Na+             5.000e-02   4.105e-02    -1.301    -1.387    -0.086     (0)  
Nta           2.000e-04
   Zn(Nta)-        1.811e-04   1.487e-04    -3.742    -3.828    -0.086     (0)  
[...]
   ZnOHCl          1.711e-07   1.711e-07    -6.767    -6.767     0.000     (0)  
   ZnCl+           6.341e-09   5.175e-09    -8.198    -8.286    -0.088     (0)  
   ZnCl2           3.366e-10   3.366e-10    -9.473    -9.473     0.000     (0)  
   ZnCl3-          1.345e-11   1.098e-11   -10.871   -10.960    -0.088     (0)  
   ZnCl4-2         4.863e-13   2.253e-13   -12.313   -12.647    -0.334     (0)  
H(0)          2.218e-30
   H2              1.109e-30   1.122e-30   -29.955   -29.950     0.005     (0)  
Na            5.000e-02
   Na+             5.000e-02   4.105e-02    -1.301    -1.387    -0.086     (0)  
Nta           2.000e-04
   Zn(Nta)-        1.502e-04   1.233e-04    -3.823    -3.909    -0.086     (0)  
   ZnOH(Nta)-2     4.852e-05   2.204e-05    -4.314    -4.657    -0.343     (0)  
   H(Nta)-2        6.346e-07   2.215e-07    -6.198    -6.655    -0.457     (0)  
   Zn(Nta)2-4      2.361e-07   1.006e-08    -6.627    -7.998    -1.371     (0)  
   Nta-3           1.732e-07   2.934e-08    -6.762    -7.533    -0.771     (0)  
   H2(Nta)-        1.004e-13   7.716e-14   -12.998   -13.113    -0.114     (0)  
   H3(Nta)         3.072e-21   3.072e-21   -20.513   -20.513     0.000     (0)  
   H4(Nta)+        1.591e-29   1.223e-29   -28.798   -28.913    -0.114     (0)  
O(0)          7.933e-33
   O2              3.967e-33   4.013e-33   -32.402   -32.397     0.005     (0)  
Zn            2.000e-04
   Zn(Nta)-        1.502e-04   1.233e-04    -3.823    -3.909    -0.086     (0)  
   ZnOH(Nta)-2     4.852e-05   2.204e-05    -4.314    -4.657    -0.343     (0)  
   Zn(OH)2         5.071e-07   5.071e-07    -6.295    -6.295     0.000     (0)  
   Zn(Nta)2-4      2.361e-07   1.006e-08    -6.627    -7.998    -1.371     (0)  
   ZnOHCl          1.711e-07   1.711e-07    -6.767    -6.767     0.000     (0)  
   ZnOH+           1.649e-07   1.267e-07    -6.783    -6.897    -0.114     (0)  
   Zn+2            1.105e-07   5.019e-08    -6.957    -7.299    -0.343     (0)  
   Zn(OH)3-        8.349e-08   6.417e-08    -7.078    -7.193    -0.114     (0)  
   ZnCl+           6.341e-09   5.175e-09    -8.198    -8.286    -0.088     (0)  
   ZnCl2           3.366e-10   3.366e-10    -9.473    -9.473     0.000     (0)  
   Zn(OH)4-2       1.848e-10   6.451e-11    -9.733   -10.190    -0.457     (0)  
   ZnCl3-          1.345e-11   1.098e-11   -10.871   -10.960    -0.088     (0)  
   ZnCl4-2         4.863e-13   2.253e-13   -12.313   -12.647    -0.334     (0)  

------------------------------Saturation indices-------------------------------

  Phase               SI** log IAP   log K(298 K,   1 atm)

  Halite           -4.38     -2.77    1.60  NaCl
  O2(g)           -29.49     53.60   83.09  O2
  Zincite           0.17     11.50   11.33  ZnO
  Zn(OH)2          -0.70     11.50   12.20  Zn(OH)2
  Zn(OH)2(am)      -0.97     11.50   12.47  Zn(OH)2
  Zn(OH)2(beta)    -0.25     11.50   11.75  Zn(OH)2
  Zn(OH)2(epsilon)  -0.03     11.50   11.53  Zn(OH)2
  Zn(OH)2(gamma)   -0.23     11.50   11.73  Zn(OH)2
  Zn2(OH)3Cl       -2.98     12.21   15.19  Zn2(OH)3Cl
  Zn5(OH)8Cl2      -2.58     35.92   38.50  Zn5(OH)8Cl2
  ZnCl2           -17.12    -10.07    7.05  ZnCl2
  Znmetal         -41.09    -15.30   25.79  Zn
  ZnO(active)       0.31     11.50   11.19  ZnO

**For a gas, SI = log10(fugacity). Fugacity = pressure * phi / 1 atm.
  For ideal gases, phi = 1.

------------------
End of simulation.
------------------

-------------------------------------
Reading input data for simulation 36.
-------------------------------------

	SOLUTION 34
	pH		9.6
	Cl		0.05		mol/kgw
	Na		0.05		mol/kgw
	Zn	0.200 	mmol/kgw
	Nta  0.200 	mmol/kgw
	END
-------------------------------------------
Beginning of initial solution calculations.
-------------------------------------------

Initial solution 34.	

-----------------------------Solution composition------------------------------

	Elements           Molality       Moles

	Cl                5.000e-02   5.000e-02
	Na                5.000e-02   5.000e-02
	Nta               2.000e-04   2.000e-04
	Zn                2.000e-04   2.000e-04

----------------------------Description of solution----------------------------

                                       pH  =   9.600    
                                       pe  =   4.000    
                        Activity of water  =   0.998
                 Ionic strength (mol/kgw)  =   5.023e-02
                       Mass of water (kg)  =   1.000e+00
                 Total alkalinity (eq/kg)  =   3.181e-04
                         Temperature (°C)  =  25.00
                  Electrical balance (eq)  =  -3.181e-04
 Percent error, 100*(Cat-|An|)/(Cat+|An|)  =  -0.32
                               Iterations  =   8
                                  Total H  = 1.110138e+02
                                  Total O  = 5.550695e+01

----------------------------Distribution of species----------------------------

                                               Log       Log       Log    mole V
   Species          Molality    Activity  Molality  Activity     Gamma   cm³/mol

   OH-             4.933e-05   4.002e-05    -4.307    -4.398    -0.091     (0)  
   H+              3.060e-10   2.512e-10    -9.514    -9.600    -0.086      0.00
   H2O             5.551e+01   9.983e-01     1.744    -0.001     0.000     18.07
Cl            5.000e-02
   Cl-             5.000e-02   4.105e-02    -1.301    -1.387    -0.086     (0)  
   ZnOHCl          1.490e-07   1.490e-07    -6.827    -6.827     0.000     (0)  
   ZnCl+           3.485e-09   2.844e-09    -8.458    -8.546    -0.088     (0)  
   ZnCl2           1.850e-10   1.850e-10    -9.733    -9.733     0.000     (0)  
   ZnCl3-          7.392e-12   6.032e-12   -11.131   -11.220    -0.088     (0)  
   ZnCl4-2         2.672e-13   1.238e-13   -12.573   -12.907    -0.334     (0)  
H(0)          8.831e-31
   H2              4.415e-31   4.467e-31   -30.355   -30.350     0.005     (0)  
Na            5.000e-02
   Na+             5.000e-02   4.105e-02    -1.301    -1.387    -0.086     (0)  
Nta           2.000e-04
   Zn(Nta)-        1.312e-04   1.077e-04    -3.882    -3.968    -0.086     (0)  
   ZnOH(Nta)-2     6.720e-05   3.052e-05    -4.173    -4.515    -0.343     (0)  
   H(Nta)-2        6.367e-07   2.222e-07    -6.196    -6.653    -0.457     (0)  
   Zn(Nta)2-4      3.282e-07   1.397e-08    -6.484    -7.855    -1.371     (0)  
   Nta-3           2.754e-07   4.664e-08    -6.560    -7.331    -0.771     (0)  
   H2(Nta)-        6.354e-14   4.884e-14   -13.197   -13.311    -0.114     (0)  
   H3(Nta)         1.227e-21   1.227e-21   -20.911   -20.911     0.000     (0)  
   H4(Nta)+        4.009e-30   3.081e-30   -29.397   -29.511    -0.114     (0)  
O(0)          5.006e-32
   O2              2.503e-32   2.532e-32   -31.602   -31.597     0.005     (0)  
Zn            2.000e-04
   Zn(Nta)-        1.312e-04   1.077e-04    -3.882    -3.968    -0.086     (0)  
   ZnOH(Nta)-2     6.720e-05   3.052e-05    -4.173    -4.515    -0.343     (0)  
   Zn(OH)2         7.000e-07   7.000e-07    -6.155    -6.155     0.000     (0)  
   Zn(Nta)2-4      3.282e-07   1.397e-08    -6.484    -7.855    -1.371     (0)  
   Zn(OH)3-        1.827e-07   1.404e-07    -6.738    -6.853    -0.114     (0)  
   ZnOHCl          1.490e-07   1.490e-07    -6.827    -6.827     0.000     (0)  
   ZnOH+           1.436e-07   1.104e-07    -6.843    -6.957    -0.114     (0)  
   Zn+2            6.073e-08   2.758e-08    -7.217    -7.559    -0.343     (0)  
   ZnCl+           3.485e-09   2.844e-09    -8.458    -8.546    -0.088     (0)  
   Zn(OH)4-2       6.410e-10   2.237e-10    -9.193    -9.650    -0.457     (0)  
   ZnCl2           1.850e-10   1.850e-10    -9.733    -9.733     0.000     (0)  
   ZnCl3-          7.392e-12   6.032e-12   -11.131   -11.220    -0.088     (0)  
   ZnCl4-2         2.672e-13   1.238e-13   -12.573   -12.907    -0.334     (0)  

------------------------------Saturation indices-------------------------------

  Phase               SI** log IAP   log K(298 K,   1 atm)

  Halite           -4.38     -2.77    1.60  NaCl
  O2(g)           -28.69     54.40   83.09  O2
  Zincite           0.31     11.64   11.33  ZnO
  Zn(OH)2          -0.56     11.64   12.20  Zn(OH)2
  Zn(OH)2(am)      -0.83     11.64   12.47  Zn(OH)2
  Zn(OH)2(beta)    -0.11     11.64   11.75  Zn(OH)2
  Zn(OH)2(epsilon)   0.11     11.64   11.53  Zn(OH)2
  Zn(OH)2(gamma)   -0.09     11.64   11.73  Zn(OH)2
  Zn2(OH)3Cl       -2.90     12.29   15.19  Zn2(OH)3Cl
  Zn5(OH)8Cl2      -2.28     36.22   38.50  Zn5(OH)8Cl2
  ZnCl2           -17.38    -10.33    7.05  ZnCl2
  Znmetal         -41.35    -15.56   25.79  Zn
  ZnO(active)       0.45     11.64   11.19  ZnO

**For a gas, SI = log10(fugacity). Fugacity = pressure * phi / 1 atm.
  For ideal gases, phi = 1.

------------------
End of simulation.
------------------

-------------------------------------
Reading input data for simulation 37.
-------------------------------------

	SOLUTION 35
	pH		9.8
	Cl		0.05		mol/kgw
	Na		0.05		mol/kgw
	Zn	0.200 	mmol/kgw
	Nta  0.200 	mmol/kgw
	END
-------------------------------------------
Beginning of initial solution calculations.
-------------------------------------------

Initial solution 35.	

-----------------------------Solution composition------------------------------

	Elements           Molality       Moles

	Cl                5.000e-02   5.000e-02
	Na                5.000e-02   5.000e-02
	Nta               2.000e-04   2.000e-04
	Zn                2.000e-04   2.000e-04

----------------------------Description of solution----------------------------

                                       pH  =   9.800    
                                       pe  =   4.000    
                        Activity of water  =   0.998
                 Ionic strength (mol/kgw)  =   5.028e-02
                       Mass of water (kg)  =   1.000e+00
                 Total alkalinity (eq/kg)  =   3.694e-04
                         Temperature (°C)  =  25.00
                  Electrical balance (eq)  =  -3.694e-04
 Percent error, 100*(Cat-|An|)/(Cat+|An|)  =  -0.37
                               Iterations  =   8
                                  Total H  = 1.110138e+02
                                  Total O  = 5.550700e+01

----------------------------Distribution of species----------------------------

                                               Log       Log       Log    mole V
   Species          Molality    Activity  Molality  Activity     Gamma   cm³/mol

   OH-             7.820e-05   6.342e-05    -4.107    -4.198    -0.091     (0)  
   H+              1.931e-10   1.585e-10    -9.714    -9.800    -0.086      0.00
   H2O             5.551e+01   9.983e-01     1.744    -0.001     0.000     18.07
Cl            5.000e-02
   Cl-             5.000e-02   4.104e-02    -1.301    -1.387    -0.086     (0)  
   ZnOHCl          1.210e-07   1.210e-07    -6.917    -6.917     0.000     (0)  
   ZnCl+           1.785e-09   1.457e-09    -8.748    -8.837    -0.088     (0)  
   ZnCl2           9.476e-11   9.476e-11   -10.023   -10.023     0.000     (0)  
   ZnCl3-          3.786e-12   3.089e-12   -11.422   -11.510    -0.088     (0)  
   ZnCl4-2         1.369e-13   6.340e-14   -12.864   -13.198    -0.334     (0)  
H(0)          3.516e-31
   H2              1.758e-31   1.778e-31   -30.755   -30.750     0.005     (0)  
Na            5.000e-02
   Na+             5.000e-02   4.104e-02    -1.301    -1.387    -0.086     (0)  
Nta           2.000e-04
   Zn(Nta)-        1.093e-04   8.971e-05    -3.961    -4.047    -0.086     (0)  
   ZnOH(Nta)-2     8.872e-05   4.028e-05    -4.052    -4.395    -0.343     (0)  
   H(Nta)-2        6.534e-07   2.279e-07    -6.185    -6.642    -0.457     (0)  
   Nta-3           4.480e-07   7.581e-08    -6.349    -7.120    -0.772     (0)  
   Zn(Nta)2-4      4.448e-07   1.891e-08    -6.352    -7.723    -1.372     (0)  
   H2(Nta)-        4.112e-14   3.160e-14   -13.386   -13.500    -0.114     (0)  
   H3(Nta)         5.009e-22   5.009e-22   -21.300   -21.300     0.000     (0)  
   H4(Nta)+        1.033e-30   7.938e-31   -29.986   -30.100    -0.114     (0)  
O(0)          3.158e-31
   O2              1.579e-31   1.598e-31   -30.802   -30.797     0.005     (0)  
Zn            2.000e-04
   Zn(Nta)-        1.093e-04   8.971e-05    -3.961    -4.047    -0.086     (0)  
   ZnOH(Nta)-2     8.872e-05   4.028e-05    -4.052    -4.395    -0.343     (0)  
   Zn(OH)2         9.009e-07   9.009e-07    -6.045    -6.045     0.000     (0)  
   Zn(Nta)2-4      4.448e-07   1.891e-08    -6.352    -7.723    -1.372     (0)  
   Zn(OH)3-        3.726e-07   2.864e-07    -6.429    -6.543    -0.114     (0)  
   ZnOHCl          1.210e-07   1.210e-07    -6.917    -6.917     0.000     (0)  
   ZnOH+           1.166e-07   8.962e-08    -6.933    -7.048    -0.114     (0)  
   Zn+2            3.112e-08   1.413e-08    -7.507    -7.850    -0.343     (0)  
   Zn(OH)4-2       2.073e-09   7.231e-10    -8.683    -9.141    -0.457     (0)  
   ZnCl+           1.785e-09   1.457e-09    -8.748    -8.837    -0.088     (0)  
   ZnCl2           9.476e-11   9.476e-11   -10.023   -10.023     0.000     (0)  
   ZnCl3-          3.786e-12   3.089e-12   -11.422   -11.510    -0.088     (0)  
   ZnCl4-2         1.369e-13   6.340e-14   -12.864   -13.198    -0.334     (0)  

------------------------------Saturation indices-------------------------------

  Phase               SI** log IAP   log K(298 K,   1 atm)

  Halite           -4.38     -2.77    1.60  NaCl
  O2(g)           -27.89     55.20   83.09  O2
  Zincite           0.42     11.75   11.33  ZnO
  Zn(OH)2          -0.45     11.75   12.20  Zn(OH)2
  Zn(OH)2(am)      -0.73     11.75   12.47  Zn(OH)2
  Zn(OH)2(beta)    -0.01     11.75   11.75  Zn(OH)2
  Zn(OH)2(epsilon)   0.21     11.75   11.53  Zn(OH)2
  Zn(OH)2(gamma)    0.01     11.75   11.73  Zn(OH)2
  Zn2(OH)3Cl       -2.88     12.31   15.19  Zn2(OH)3Cl
  Zn5(OH)8Cl2      -2.13     36.37   38.50  Zn5(OH)8Cl2
  ZnCl2           -17.67    -10.62    7.05  ZnCl2
  Znmetal         -41.64    -15.85   25.79  Zn
  ZnO(active)       0.56     11.75   11.19  ZnO

**For a gas, SI = log10(fugacity). Fugacity = pressure * phi / 1 atm.
  For ideal gases, phi = 1.

------------------
End of simulation.
------------------

-------------------------------------
Reading input data for simulation 38.
-------------------------------------

	SOLUTION 36
	pH		10.0
	Cl		0.05		mol/kgw
	Na		0.05		mol/kgw
	Zn	0.200 	mmol/kgw
	Nta  0.200 	mmol/kgw
	END
-------------------------------------------
Beginning of initial solution calculations.
-------------------------------------------

Initial solution 36.	

-----------------------------Solution composition------------------------------

	Elements           Molality       Moles

	Cl                5.000e-02   5.000e-02
	Na                5.000e-02   5.000e-02
	Nta               2.000e-04   2.000e-04
	Zn                2.000e-04   2.000e-04

----------------------------Description of solution----------------------------

                                       pH  =  10.000    
                                       pe  =   4.000    
                        Activity of water  =   0.998
                 Ionic strength (mol/kgw)  =   5.034e-02
                       Mass of water (kg)  =   1.000e+00
                 Total alkalinity (eq/kg)  =   4.389e-04
                         Temperature (°C)  =  25.00
                  Electrical balance (eq)  =  -4.389e-04
 Percent error, 100*(Cat-|An|)/(Cat+|An|)  =  -0.44
                               Iterations  =   7
                                  Total H  = 1.110139e+02
                                  Total O  = 5.550707e+01

----------------------------Distribution of species----------------------------

                                               Log       Log       Log    mole V
   Species          Molality    Activity  Molality  Activity     Gamma   cm³/mol

   OH-             1.239e-04   1.005e-04    -3.907    -3.998    -0.091     (0)  
   H+              1.218e-10   1.000e-10    -9.914   -10.000    -0.086      0.00
   H2O             5.551e+01   9.983e-01     1.744    -0.001     0.000     18.07
Cl            5.000e-02
   Cl-             5.000e-02   4.104e-02    -1.301    -1.387    -0.086     (0)  
   ZnOHCl          9.188e-08   9.188e-08    -7.037    -7.037     0.000     (0)  
   ZnCl+           8.557e-10   6.981e-10    -9.068    -9.156    -0.088     (0)  
   ZnCl2           4.541e-11   4.541e-11   -10.343   -10.343     0.000     (0)  
   ZnCl3-          1.814e-12   1.480e-12   -11.741   -11.830    -0.088     (0)  
   ZnCl4-2         6.562e-14   3.038e-14   -13.183   -13.517    -0.334     (0)  
H(0)          1.400e-31
   H2              6.998e-32   7.079e-32   -31.155   -31.150     0.005     (0)  
Na            5.000e-02
   Na+             5.000e-02   4.104e-02    -1.301    -1.387    -0.086     (0)  
Nta           2.000e-04
   ZnOH(Nta)-2     1.111e-04   5.043e-05    -3.954    -4.297    -0.343     (0)  
   Zn(Nta)-        8.633e-05   7.086e-05    -4.064    -4.150    -0.086     (0)  
   Nta-3           7.387e-07   1.249e-07    -6.132    -6.903    -0.772     (0)  
   H(Nta)-2        6.798e-07   2.370e-07    -6.168    -6.625    -0.458     (0)  
   Zn(Nta)2-4      5.797e-07   2.461e-08    -6.237    -7.609    -1.372     (0)  
   H2(Nta)-        2.698e-14   2.073e-14   -13.569   -13.683    -0.114     (0)  
   H3(Nta)         2.073e-22   2.073e-22   -21.683   -21.683     0.000     (0)  
   H4(Nta)+        2.698e-31   2.073e-31   -30.569   -30.683    -0.114     (0)  
O(0)          1.993e-30
   O2              9.963e-31   1.008e-30   -30.002   -29.997     0.005     (0)  
Zn            2.000e-04
   ZnOH(Nta)-2     1.111e-04   5.043e-05    -3.954    -4.297    -0.343     (0)  
   Zn(Nta)-        8.633e-05   7.086e-05    -4.064    -4.150    -0.086     (0)  
   Zn(OH)2         1.085e-06   1.085e-06    -5.965    -5.965     0.000     (0)  
   Zn(OH)3-        7.111e-07   5.464e-07    -6.148    -6.262    -0.114     (0)  
   Zn(Nta)2-4      5.797e-07   2.461e-08    -6.237    -7.609    -1.372     (0)  
   ZnOHCl          9.188e-08   9.188e-08    -7.037    -7.037     0.000     (0)  
   ZnOH+           8.860e-08   6.808e-08    -7.053    -7.167    -0.114     (0)  
   Zn+2            1.492e-08   6.772e-09    -7.826    -8.169    -0.343     (0)  
   Zn(OH)4-2       6.273e-09   2.187e-09    -8.203    -8.660    -0.458     (0)  
   ZnCl+           8.557e-10   6.981e-10    -9.068    -9.156    -0.088     (0)  
   ZnCl2           4.541e-11   4.541e-11   -10.343   -10.343     0.000     (0)  
   ZnCl3-          1.814e-12   1.480e-12   -11.741   -11.830    -0.088     (0)  
   ZnCl4-2         6.562e-14   3.038e-14   -13.183   -13.517    -0.334     (0)  

------------------------------Saturation indices-------------------------------

  Phase               SI** log IAP   log K(298 K,   1 atm)

  Halite           -4.38     -2.77    1.60  NaCl
  O2(g)           -27.09     56.00   83.09  O2
  Zincite           0.50     11.83   11.33  ZnO
  Zn(OH)2          -0.37     11.83   12.20  Zn(OH)2
  Zn(OH)2(am)      -0.64     11.83   12.47  Zn(OH)2
  Zn(OH)2(beta)     0.08     11.83   11.75  Zn(OH)2
  Zn(OH)2(epsilon)   0.30     11.83   11.53  Zn(OH)2
  Zn(OH)2(gamma)    0.10     11.83   11.73  Zn(OH)2
  Zn2(OH)3Cl       -2.92     12.27   15.19  Zn2(OH)3Cl
  Zn5(OH)8Cl2      -2.13     36.37   38.50  Zn5(OH)8Cl2
  ZnCl2           -17.99    -10.94    7.05  ZnCl2
  Znmetal         -41.96    -16.17   25.79  Zn
  ZnO(active)       0.64     11.83   11.19  ZnO

**For a gas, SI = log10(fugacity). Fugacity = pressure * phi / 1 atm.
  For ideal gases, phi = 1.

------------------
End of simulation.
------------------

-------------------------------------
Reading input data for simulation 39.
-------------------------------------

----------------------------------
End of Run after 0.060445 Seconds.
----------------------------------

