   Input file: /Users/wangjincheng/Desktop/git/irp-jw21/Project_jw21/pqi/0.15ZnEDTA.pqi
  Output file: /Users/wangjincheng/Desktop/git/irp-jw21/Project_jw21/pqo/0.15ZnEDTA.pqi.pqi.out
Database file: /Users/wangjincheng/Desktop/git/irp-jw21/Project_jw21/phreeqc/database/minteq.v4.dat

------------------
Reading data base.
------------------

	SOLUTION_MASTER_SPECIES
	SOLUTION_SPECIES
	SOLUTION_SPECIES
	PHASES
	PHASES
	SURFACE_MASTER_SPECIES
	SURFACE_SPECIES
	END
------------------------------------
Reading input data for simulation 1.
------------------------------------

	DATABASE /Users/wangjincheng/Desktop/git/irp-jw21/Project_jw21/phreeqc/database/minteq.v4.dat
	TITLE 04_SURFACE_COMPLEXATION
	SOLUTION_MASTER_SPECIES
	Zn		Zn+2		0.0	Zn	65.39
	END
-----
TITLE
-----

 04_SURFACE_COMPLEXATION

------------------
End of simulation.
------------------

------------------------------------
Reading input data for simulation 2.
------------------------------------

	SOLUTION_SPECIES
	Zn+2 + Edta-4 = Zn(Edta)-2
	log_k		16.089
	Zn+2 + Edta-4 + H+ = ZnH(Edta)-
	log_k		19.011
	Zn+2 + Edta-4 + H2O = ZnOH(Edta)-3 + H+
	log_k		4.606
	END
------------------
End of simulation.
------------------

------------------------------------
Reading input data for simulation 3.
------------------------------------

	SOLUTION 1
	pH		3.0
	Cl		0.15		mol/kgw
	Na		0.15		mol/kgw
	Zn	0.200 	mmol/kgw
	EDTA  0.200 	mmol/kgw
	END
-------------------------------------------
Beginning of initial solution calculations.
-------------------------------------------

Initial solution 1.	

-----------------------------Solution composition------------------------------

	Elements           Molality       Moles

	Cl                1.500e-01   1.500e-01
	EDTA              2.000e-04   2.000e-04
	Na                1.500e-01   1.500e-01
	Zn                2.000e-04   2.000e-04

----------------------------Description of solution----------------------------

                                       pH  =   3.000    
                                       pe  =   4.000    
                        Activity of water  =   0.995
                 Ionic strength (mol/kgw)  =   1.511e-01
                       Mass of water (kg)  =   1.000e+00
                 Total alkalinity (eq/kg)  =  -1.171e-03
                         Temperature (°C)  =  25.00
                  Electrical balance (eq)  =   1.171e-03
 Percent error, 100*(Cat-|An|)/(Cat+|An|)  =   0.39
                               Iterations  =  10
                                  Total H  = 1.110152e+02
                                  Total O  = 5.550683e+01

----------------------------Distribution of species----------------------------

                                               Log       Log       Log    mole V
   Species          Molality    Activity  Molality  Activity     Gamma   cm³/mol

   H+              1.317e-03   1.000e-03    -2.880    -3.000    -0.120      0.00
   OH-             1.373e-11   1.002e-11   -10.862   -10.999    -0.137     (0)  
   H2O             5.551e+01   9.949e-01     1.744    -0.002     0.000     18.07
Cl            1.500e-01
   Cl-             1.500e-01   1.139e-01    -0.824    -0.944    -0.120     (0)  
   ZnCl+           1.108e-05   8.194e-06    -4.955    -5.087    -0.131     (0)  
   ZnCl2           1.479e-06   1.479e-06    -5.830    -5.830     0.000     (0)  
   ZnCl3-          1.809e-07   1.337e-07    -6.742    -6.874    -0.131     (0)  
   ZnCl4-2         2.321e-08   7.615e-09    -7.634    -8.118    -0.484     (0)  
   ZnOHCl          1.075e-10   1.075e-10    -9.969    -9.969     0.000     (0)  
Edta          2.000e-04
   Zn(Edta)-2      7.395e-05   2.457e-05    -4.131    -4.610    -0.479     (0)  
   H2(Edta)-2      7.218e-05   1.162e-05    -4.142    -4.935    -0.793     (0)  
   ZnH(Edta)-      2.704e-05   2.053e-05    -4.568    -4.688    -0.120     (0)  
   H3(Edta)-       2.413e-05   1.528e-05    -4.617    -4.816    -0.198     (0)  
   H4(Edta)        2.209e-06   2.209e-06    -5.656    -5.656     0.000     (0)  
   H(Edta)-3       3.774e-07   6.198e-09    -6.423    -8.208    -1.785     (0)  
   H5(Edta)+       1.103e-07   6.987e-08    -6.957    -7.156    -0.198     (0)  
   ZnOH(Edta)-3    9.594e-13   8.038e-14   -12.018   -13.095    -1.077     (0)  
   Na(Edta)-3      2.428e-13   3.988e-15   -12.615   -14.399    -1.785     (0)  
   Edta-4          5.737e-15   6.987e-17   -14.241   -16.156    -1.914     (0)  
H(0)          1.367e-17
   H2              6.837e-18   7.079e-18   -17.165   -17.150     0.015     (0)  
Na            1.500e-01
   Na+             1.500e-01   1.139e-01    -0.824    -0.944    -0.120     (0)  
   Na(Edta)-3      2.428e-13   3.988e-15   -12.615   -14.399    -1.785     (0)  
O(0)          0.000e+00
   O2              0.000e+00   0.000e+00   -58.015   -58.000     0.015     (0)  
Zn            2.000e-04
   Zn+2            8.624e-05   2.865e-05    -4.064    -4.543    -0.479     (0)  
   Zn(Edta)-2      7.395e-05   2.457e-05    -4.131    -4.610    -0.479     (0)  
   ZnH(Edta)-      2.704e-05   2.053e-05    -4.568    -4.688    -0.120     (0)  
   ZnCl+           1.108e-05   8.194e-06    -4.955    -5.087    -0.131     (0)  
   ZnCl2           1.479e-06   1.479e-06    -5.830    -5.830     0.000     (0)  
   ZnCl3-          1.809e-07   1.337e-07    -6.742    -6.874    -0.131     (0)  
   ZnCl4-2         2.321e-08   7.615e-09    -7.634    -8.118    -0.484     (0)  
   ZnOHCl          1.075e-10   1.075e-10    -9.969    -9.969     0.000     (0)  
   ZnOH+           4.531e-11   2.870e-11   -10.344   -10.542    -0.198     (0)  
   ZnOH(Edta)-3    9.594e-13   8.038e-14   -12.018   -13.095    -1.077     (0)  
   Zn(OH)2         4.556e-17   4.556e-17   -16.341   -16.341     0.000     (0)  
   Zn(OH)3-        3.611e-24   2.288e-24   -23.442   -23.641    -0.198     (0)  
   Zn(OH)4-2       5.666e-33   9.124e-34   -32.247   -33.040    -0.793     (0)  

------------------------------Saturation indices-------------------------------

  Phase               SI** log IAP   log K(298 K,   1 atm)

  Halite           -3.49     -1.89    1.60  NaCl
  O2(g)           -55.09     28.00   83.09  O2
  Zincite          -9.88      1.45   11.33  ZnO
  Zn(OH)2         -10.75      1.45   12.20  Zn(OH)2
  Zn(OH)2(am)     -11.02      1.45   12.47  Zn(OH)2
  Zn(OH)2(beta)   -10.30      1.45   11.75  Zn(OH)2
  Zn(OH)2(epsilon) -10.08      1.45   11.53  Zn(OH)2
  Zn(OH)2(gamma)  -10.28      1.45   11.73  Zn(OH)2
  Zn2(OH)3Cl      -16.23     -1.04   15.19  Zn2(OH)3Cl
  Zn5(OH)8Cl2     -39.12     -0.62   38.50  Zn5(OH)8Cl2
  ZnCl2           -13.48     -6.43    7.05  ZnCl2
  Znmetal         -38.33    -12.54   25.79  Zn
  ZnO(active)      -9.73      1.45   11.19  ZnO

**For a gas, SI = log10(fugacity). Fugacity = pressure * phi / 1 atm.
  For ideal gases, phi = 1.

------------------
End of simulation.
------------------

------------------------------------
Reading input data for simulation 4.
------------------------------------

	SOLUTION 2
	pH		3.2
	Cl		0.15		mol/kgw
	Na		0.15		mol/kgw
	Zn	0.200 	mmol/kgw
	EDTA  0.200 	mmol/kgw
	END
-------------------------------------------
Beginning of initial solution calculations.
-------------------------------------------

Initial solution 2.	

-----------------------------Solution composition------------------------------

	Elements           Molality       Moles

	Cl                1.500e-01   1.500e-01
	EDTA              2.000e-04   2.000e-04
	Na                1.500e-01   1.500e-01
	Zn                2.000e-04   2.000e-04

----------------------------Description of solution----------------------------

                                       pH  =   3.200    
                                       pe  =   4.000    
                        Activity of water  =   0.995
                 Ionic strength (mol/kgw)  =   1.509e-01
                       Mass of water (kg)  =   1.000e+00
                 Total alkalinity (eq/kg)  =  -6.095e-04
                         Temperature (°C)  =  25.00
                  Electrical balance (eq)  =   6.095e-04
 Percent error, 100*(Cat-|An|)/(Cat+|An|)  =   0.20
                               Iterations  =   9
                                  Total H  = 1.110147e+02
                                  Total O  = 5.550683e+01

----------------------------Distribution of species----------------------------

                                               Log       Log       Log    mole V
   Species          Molality    Activity  Molality  Activity     Gamma   cm³/mol

   H+              8.310e-04   6.310e-04    -3.080    -3.200    -0.120      0.00
   OH-             2.176e-11   1.588e-11   -10.662   -10.799    -0.137     (0)  
   H2O             5.551e+01   9.949e-01     1.744    -0.002     0.000     18.07
Cl            1.500e-01
   Cl-             1.500e-01   1.139e-01    -0.824    -0.944    -0.120     (0)  
   ZnCl+           7.902e-06   5.842e-06    -5.102    -5.233    -0.131     (0)  
   ZnCl2           1.054e-06   1.054e-06    -5.977    -5.977     0.000     (0)  
   ZnCl3-          1.290e-07   9.539e-08    -6.889    -7.021    -0.131     (0)  
   ZnCl4-2         1.655e-08   5.432e-09    -7.781    -8.265    -0.484     (0)  
   ZnOHCl          1.214e-10   1.214e-10    -9.916    -9.916     0.000     (0)  
Edta          2.000e-04
   Zn(Edta)-2      1.052e-04   3.496e-05    -3.978    -4.456    -0.478     (0)  
   H2(Edta)-2      5.726e-05   9.235e-06    -4.242    -5.035    -0.792     (0)  
   ZnH(Edta)-      2.427e-05   1.843e-05    -4.615    -4.734    -0.120     (0)  
   H3(Edta)-       1.209e-05   7.663e-06    -4.917    -5.116    -0.198     (0)  
   H4(Edta)        6.989e-07   6.989e-07    -6.156    -6.156     0.000     (0)  
   H(Edta)-3       4.736e-07   7.806e-09    -6.325    -8.108    -1.783     (0)  
   H5(Edta)+       2.201e-08   1.395e-08    -7.657    -7.856    -0.198     (0)  
   ZnOH(Edta)-3    2.161e-12   1.813e-13   -11.665   -12.742    -1.076     (0)  
   Na(Edta)-3      4.830e-13   7.960e-15   -12.316   -14.099    -1.783     (0)  
   Edta-4          1.143e-14   1.395e-16   -13.942   -15.856    -1.914     (0)  
H(0)          5.444e-18
   H2              2.722e-18   2.818e-18   -17.565   -17.550     0.015     (0)  
Na            1.500e-01
   Na+             1.500e-01   1.139e-01    -0.824    -0.944    -0.120     (0)  
   Na(Edta)-3      4.830e-13   7.960e-15   -12.316   -14.099    -1.783     (0)  
O(0)          0.000e+00
   O2              0.000e+00   0.000e+00   -57.215   -57.200     0.015     (0)  
Zn            2.000e-04
   Zn(Edta)-2      1.052e-04   3.496e-05    -3.978    -4.456    -0.478     (0)  
   Zn+2            6.145e-05   2.042e-05    -4.211    -4.690    -0.478     (0)  
   ZnH(Edta)-      2.427e-05   1.843e-05    -4.615    -4.734    -0.120     (0)  
   ZnCl+           7.902e-06   5.842e-06    -5.102    -5.233    -0.131     (0)  
   ZnCl2           1.054e-06   1.054e-06    -5.977    -5.977     0.000     (0)  
   ZnCl3-          1.290e-07   9.539e-08    -6.889    -7.021    -0.131     (0)  
   ZnCl4-2         1.655e-08   5.432e-09    -7.781    -8.265    -0.484     (0)  
   ZnOHCl          1.214e-10   1.214e-10    -9.916    -9.916     0.000     (0)  
   ZnOH+           5.117e-11   3.242e-11   -10.291   -10.489    -0.198     (0)  
   ZnOH(Edta)-3    2.161e-12   1.813e-13   -11.665   -12.742    -1.076     (0)  
   Zn(OH)2         8.159e-17   8.159e-17   -16.088   -16.088     0.000     (0)  
   Zn(OH)3-        1.025e-23   6.493e-24   -22.989   -23.188    -0.198     (0)  
   Zn(OH)4-2       2.545e-32   4.104e-33   -31.594   -32.387    -0.792     (0)  

------------------------------Saturation indices-------------------------------

  Phase               SI** log IAP   log K(298 K,   1 atm)

  Halite           -3.49     -1.89    1.60  NaCl
  O2(g)           -54.29     28.80   83.09  O2
  Zincite          -9.63      1.71   11.33  ZnO
  Zn(OH)2         -10.49      1.71   12.20  Zn(OH)2
  Zn(OH)2(am)     -10.77      1.71   12.47  Zn(OH)2
  Zn(OH)2(beta)   -10.05      1.71   11.75  Zn(OH)2
  Zn(OH)2(epsilon)  -9.83      1.71   11.53  Zn(OH)2
  Zn(OH)2(gamma)  -10.03      1.71   11.73  Zn(OH)2
  Zn2(OH)3Cl      -15.92     -0.73   15.19  Zn2(OH)3Cl
  Zn5(OH)8Cl2     -38.25      0.25   38.50  Zn5(OH)8Cl2
  ZnCl2           -13.63     -6.58    7.05  ZnCl2
  Znmetal         -38.48    -12.69   25.79  Zn
  ZnO(active)      -9.48      1.71   11.19  ZnO

**For a gas, SI = log10(fugacity). Fugacity = pressure * phi / 1 atm.
  For ideal gases, phi = 1.

------------------
End of simulation.
------------------

------------------------------------
Reading input data for simulation 5.
------------------------------------

	SOLUTION 3
	pH		3.4
	Cl		0.15		mol/kgw
	Na		0.15		mol/kgw
	Zn	0.200 	mmol/kgw
	EDTA  0.200 	mmol/kgw
	END
-------------------------------------------
Beginning of initial solution calculations.
-------------------------------------------

Initial solution 3.	

-----------------------------Solution composition------------------------------

	Elements           Molality       Moles

	Cl                1.500e-01   1.500e-01
	EDTA              2.000e-04   2.000e-04
	Na                1.500e-01   1.500e-01
	Zn                2.000e-04   2.000e-04

----------------------------Description of solution----------------------------

                                       pH  =   3.400    
                                       pe  =   4.000    
                        Activity of water  =   0.995
                 Ionic strength (mol/kgw)  =   1.507e-01
                       Mass of water (kg)  =   1.000e+00
                 Total alkalinity (eq/kg)  =  -2.456e-04
                         Temperature (°C)  =  25.00
                  Electrical balance (eq)  =   2.456e-04
 Percent error, 100*(Cat-|An|)/(Cat+|An|)  =   0.08
                               Iterations  =   9
                                  Total H  = 1.110143e+02
                                  Total O  = 5.550683e+01

----------------------------Distribution of species----------------------------

                                               Log       Log       Log    mole V
   Species          Molality    Activity  Molality  Activity     Gamma   cm³/mol

   H+              5.243e-04   3.981e-04    -3.280    -3.400    -0.120      0.00
   OH-             3.449e-11   2.516e-11   -10.462   -10.599    -0.137     (0)  
   H2O             5.551e+01   9.949e-01     1.744    -0.002     0.000     18.07
Cl            1.500e-01
   Cl-             1.500e-01   1.139e-01    -0.824    -0.943    -0.120     (0)  
   ZnCl+           5.407e-06   3.998e-06    -5.267    -5.398    -0.131     (0)  
   ZnCl2           7.217e-07   7.217e-07    -6.142    -6.142     0.000     (0)  
   ZnCl3-          8.830e-08   6.529e-08    -7.054    -7.185    -0.131     (0)  
   ZnCl4-2         1.132e-08   3.718e-09    -7.946    -8.430    -0.484     (0)  
   ZnOHCl          1.317e-10   1.317e-10    -9.880    -9.880     0.000     (0)  
Edta          2.000e-04
   Zn(Edta)-2      1.324e-04   4.403e-05    -3.878    -4.356    -0.478     (0)  
   H2(Edta)-2      4.192e-05   6.767e-06    -4.378    -5.170    -0.792     (0)  
   ZnH(Edta)-      1.929e-05   1.465e-05    -4.715    -4.834    -0.120     (0)  
   H3(Edta)-       5.590e-06   3.543e-06    -5.253    -5.451    -0.198     (0)  
   H(Edta)-3       5.488e-07   9.066e-09    -6.261    -8.043    -1.782     (0)  
   H4(Edta)        2.039e-07   2.039e-07    -6.691    -6.691     0.000     (0)  
   H5(Edta)+       4.050e-09   2.567e-09    -8.393    -8.591    -0.198     (0)  
   ZnOH(Edta)-3    4.312e-12   3.619e-13   -11.365   -12.441    -1.076     (0)  
   Na(Edta)-3      8.870e-13   1.465e-14   -12.052   -13.834    -1.782     (0)  
   Edta-4          2.101e-14   2.567e-16   -13.677   -15.591    -1.913     (0)  
H(0)          2.167e-18
   H2              1.084e-18   1.122e-18   -17.965   -17.950     0.015     (0)  
Na            1.500e-01
   Na+             1.500e-01   1.139e-01    -0.824    -0.943    -0.120     (0)  
   Na(Edta)-3      8.870e-13   1.465e-14   -12.052   -13.834    -1.782     (0)  
O(0)          0.000e+00
   O2              0.000e+00   0.000e+00   -56.415   -56.400     0.015     (0)  
Zn            2.000e-04
   Zn(Edta)-2      1.324e-04   4.403e-05    -3.878    -4.356    -0.478     (0)  
   Zn+2            4.204e-05   1.397e-05    -4.376    -4.855    -0.478     (0)  
   ZnH(Edta)-      1.929e-05   1.465e-05    -4.715    -4.834    -0.120     (0)  
   ZnCl+           5.407e-06   3.998e-06    -5.267    -5.398    -0.131     (0)  
   ZnCl2           7.217e-07   7.217e-07    -6.142    -6.142     0.000     (0)  
   ZnCl3-          8.830e-08   6.529e-08    -7.054    -7.185    -0.131     (0)  
   ZnCl4-2         1.132e-08   3.718e-09    -7.946    -8.430    -0.484     (0)  
   ZnOHCl          1.317e-10   1.317e-10    -9.880    -9.880     0.000     (0)  
   ZnOH+           5.548e-11   3.517e-11   -10.256   -10.454    -0.198     (0)  
   ZnOH(Edta)-3    4.312e-12   3.619e-13   -11.365   -12.441    -1.076     (0)  
   Zn(OH)2         1.402e-16   1.402e-16   -15.853   -15.853     0.000     (0)  
   Zn(OH)3-        2.790e-23   1.769e-23   -22.554   -22.752    -0.198     (0)  
   Zn(OH)4-2       1.098e-31   1.772e-32   -30.960   -31.752    -0.792     (0)  

------------------------------Saturation indices-------------------------------

  Phase               SI** log IAP   log K(298 K,   1 atm)

  Halite           -3.49     -1.89    1.60  NaCl
  O2(g)           -53.49     29.60   83.09  O2
  Zincite          -9.39      1.94   11.33  ZnO
  Zn(OH)2         -10.26      1.94   12.20  Zn(OH)2
  Zn(OH)2(am)     -10.53      1.94   12.47  Zn(OH)2
  Zn(OH)2(beta)    -9.81      1.94   11.75  Zn(OH)2
  Zn(OH)2(epsilon)  -9.59      1.94   11.53  Zn(OH)2
  Zn(OH)2(gamma)   -9.79      1.94   11.73  Zn(OH)2
  Zn2(OH)3Cl      -15.65     -0.46   15.19  Zn2(OH)3Cl
  Zn5(OH)8Cl2     -37.48      1.02   38.50  Zn5(OH)8Cl2
  ZnCl2           -13.79     -6.74    7.05  ZnCl2
  Znmetal         -38.64    -12.85   25.79  Zn
  ZnO(active)      -9.25      1.94   11.19  ZnO

**For a gas, SI = log10(fugacity). Fugacity = pressure * phi / 1 atm.
  For ideal gases, phi = 1.

------------------
End of simulation.
------------------

------------------------------------
Reading input data for simulation 6.
------------------------------------

	SOLUTION 4
	pH		3.6
	Cl		0.15		mol/kgw
	Na		0.15		mol/kgw
	Zn	0.200 	mmol/kgw
	EDTA  0.200 	mmol/kgw
	END
-------------------------------------------
Beginning of initial solution calculations.
-------------------------------------------

Initial solution 4.	

-----------------------------Solution composition------------------------------

	Elements           Molality       Moles

	Cl                1.500e-01   1.500e-01
	EDTA              2.000e-04   2.000e-04
	Na                1.500e-01   1.500e-01
	Zn                2.000e-04   2.000e-04

----------------------------Description of solution----------------------------

                                       pH  =   3.600    
                                       pe  =   4.000    
                        Activity of water  =   0.995
                 Ionic strength (mol/kgw)  =   1.506e-01
                       Mass of water (kg)  =   1.000e+00
                 Total alkalinity (eq/kg)  =  -1.118e-05
                         Temperature (°C)  =  25.00
                  Electrical balance (eq)  =   1.118e-05
 Percent error, 100*(Cat-|An|)/(Cat+|An|)  =   0.00
                               Iterations  =   9
                                  Total H  = 1.110141e+02
                                  Total O  = 5.550683e+01

----------------------------Distribution of species----------------------------

                                               Log       Log       Log    mole V
   Species          Molality    Activity  Molality  Activity     Gamma   cm³/mol

   H+              3.308e-04   2.512e-04    -3.480    -3.600    -0.120      0.00
   OH-             5.466e-11   3.988e-11   -10.262   -10.399    -0.137     (0)  
   H2O             5.551e+01   9.949e-01     1.744    -0.002     0.000     18.07
Cl            1.500e-01
   Cl-             1.500e-01   1.139e-01    -0.824    -0.943    -0.120     (0)  
   ZnCl+           3.603e-06   2.664e-06    -5.443    -5.574    -0.131     (0)  
   ZnCl2           4.810e-07   4.810e-07    -6.318    -6.318     0.000     (0)  
   ZnCl3-          5.885e-08   4.352e-08    -7.230    -7.361    -0.131     (0)  
   ZnCl4-2         7.546e-09   2.478e-09    -8.122    -8.606    -0.484     (0)  
   ZnOHCl          1.391e-10   1.391e-10    -9.857    -9.857     0.000     (0)  
Edta          2.000e-04
   Zn(Edta)-2      1.537e-04   5.111e-05    -3.813    -4.291    -0.478     (0)  
   H2(Edta)-2      2.905e-05   4.693e-06    -4.537    -5.329    -0.792     (0)  
   ZnH(Edta)-      1.413e-05   1.073e-05    -4.850    -4.969    -0.120     (0)  
   H3(Edta)-       2.446e-06   1.550e-06    -5.612    -5.810    -0.198     (0)  
   H(Edta)-3       6.023e-07   9.965e-09    -6.220    -8.002    -1.781     (0)  
   H4(Edta)        5.630e-08   5.630e-08    -7.250    -7.250     0.000     (0)  
   H5(Edta)+       7.053e-10   4.472e-10    -9.152    -9.350    -0.198     (0)  
   ZnOH(Edta)-3    7.929e-12   6.657e-13   -11.101   -12.177    -1.076     (0)  
   Na(Edta)-3      1.543e-12   2.553e-14   -11.812   -13.593    -1.781     (0)  
   Edta-4          3.658e-14   4.472e-16   -13.437   -15.350    -1.913     (0)  
H(0)          8.629e-19
   H2              4.315e-19   4.467e-19   -18.365   -18.350     0.015     (0)  
Na            1.500e-01
   Na+             1.500e-01   1.139e-01    -0.824    -0.943    -0.120     (0)  
   Na(Edta)-3      1.543e-12   2.553e-14   -11.812   -13.593    -1.781     (0)  
O(0)          0.000e+00
   O2              0.000e+00   0.000e+00   -55.615   -55.600     0.015     (0)  
Zn            2.000e-04
   Zn(Edta)-2      1.537e-04   5.111e-05    -3.813    -4.291    -0.478     (0)  
   Zn+2            2.801e-05   9.312e-06    -4.553    -5.031    -0.478     (0)  
   ZnH(Edta)-      1.413e-05   1.073e-05    -4.850    -4.969    -0.120     (0)  
   ZnCl+           3.603e-06   2.664e-06    -5.443    -5.574    -0.131     (0)  
   ZnCl2           4.810e-07   4.810e-07    -6.318    -6.318     0.000     (0)  
   ZnCl3-          5.885e-08   4.352e-08    -7.230    -7.361    -0.131     (0)  
   ZnCl4-2         7.546e-09   2.478e-09    -8.122    -8.606    -0.484     (0)  
   ZnOHCl          1.391e-10   1.391e-10    -9.857    -9.857     0.000     (0)  
   ZnOH+           5.858e-11   3.714e-11   -10.232   -10.430    -0.198     (0)  
   ZnOH(Edta)-3    7.929e-12   6.657e-13   -11.101   -12.177    -1.076     (0)  
   Zn(OH)2         2.348e-16   2.348e-16   -15.629   -15.629     0.000     (0)  
   Zn(OH)3-        7.401e-23   4.692e-23   -22.131   -22.329    -0.198     (0)  
   Zn(OH)4-2       4.612e-31   7.450e-32   -30.336   -31.128    -0.792     (0)  

------------------------------Saturation indices-------------------------------

  Phase               SI** log IAP   log K(298 K,   1 atm)

  Halite           -3.49     -1.89    1.60  NaCl
  O2(g)           -52.69     30.40   83.09  O2
  Zincite          -9.17      2.17   11.33  ZnO
  Zn(OH)2         -10.04      2.16   12.20  Zn(OH)2
  Zn(OH)2(am)     -10.31      2.16   12.47  Zn(OH)2
  Zn(OH)2(beta)    -9.59      2.16   11.75  Zn(OH)2
  Zn(OH)2(epsilon)  -9.37      2.16   11.53  Zn(OH)2
  Zn(OH)2(gamma)   -9.57      2.16   11.73  Zn(OH)2
  Zn2(OH)3Cl      -15.40     -0.21   15.19  Zn2(OH)3Cl
  Zn5(OH)8Cl2     -36.76      1.74   38.50  Zn5(OH)8Cl2
  ZnCl2           -13.97     -6.92    7.05  ZnCl2
  Znmetal         -38.82    -13.03   25.79  Zn
  ZnO(active)      -9.02      2.17   11.19  ZnO

**For a gas, SI = log10(fugacity). Fugacity = pressure * phi / 1 atm.
  For ideal gases, phi = 1.

------------------
End of simulation.
------------------

------------------------------------
Reading input data for simulation 7.
------------------------------------

	SOLUTION 5
	pH		3.8
	Cl		0.15		mol/kgw
	Na		0.15		mol/kgw
	Zn	0.200 	mmol/kgw
	EDTA  0.200 	mmol/kgw
	END
-------------------------------------------
Beginning of initial solution calculations.
-------------------------------------------

Initial solution 5.	

-----------------------------Solution composition------------------------------

	Elements           Molality       Moles

	Cl                1.500e-01   1.500e-01
	EDTA              2.000e-04   2.000e-04
	Na                1.500e-01   1.500e-01
	Zn                2.000e-04   2.000e-04

----------------------------Description of solution----------------------------

                                       pH  =   3.800    
                                       pe  =   4.000    
                        Activity of water  =   0.995
                 Ionic strength (mol/kgw)  =   1.505e-01
                       Mass of water (kg)  =   1.000e+00
                 Total alkalinity (eq/kg)  =   1.389e-04
                         Temperature (°C)  =  25.00
                  Electrical balance (eq)  =  -1.389e-04
 Percent error, 100*(Cat-|An|)/(Cat+|An|)  =  -0.05
                               Iterations  =  10
                                  Total H  = 1.110139e+02
                                  Total O  = 5.550683e+01

----------------------------Distribution of species----------------------------

                                               Log       Log       Log    mole V
   Species          Molality    Activity  Molality  Activity     Gamma   cm³/mol

   H+              2.087e-04   1.585e-04    -3.680    -3.800    -0.120      0.00
   OH-             8.662e-11   6.321e-11   -10.062   -10.199    -0.137     (0)  
   H2O             5.551e+01   9.949e-01     1.744    -0.002     0.000     18.07
Cl            1.500e-01
   Cl-             1.500e-01   1.139e-01    -0.824    -0.943    -0.120     (0)  
   ZnCl+           2.362e-06   1.747e-06    -5.627    -5.758    -0.131     (0)  
   ZnCl2           3.154e-07   3.154e-07    -6.501    -6.501     0.000     (0)  
   ZnCl3-          3.859e-08   2.854e-08    -7.414    -7.545    -0.131     (0)  
   ZnCl4-2         4.948e-09   1.625e-09    -8.306    -8.789    -0.483     (0)  
   ZnOHCl          1.446e-10   1.446e-10    -9.840    -9.840     0.000     (0)  
Edta          2.000e-04
   Zn(Edta)-2      1.691e-04   5.624e-05    -3.772    -4.250    -0.478     (0)  
   H2(Edta)-2      1.940e-05   3.135e-06    -4.712    -5.504    -0.792     (0)  
   ZnH(Edta)-      9.808e-06   7.448e-06    -5.008    -5.128    -0.120     (0)  
   H3(Edta)-       1.031e-06   6.535e-07    -5.987    -6.185    -0.198     (0)  
   H(Edta)-3       6.371e-07   1.055e-08    -6.196    -7.977    -1.781     (0)  
   H4(Edta)        1.497e-08   1.497e-08    -7.825    -7.825     0.000     (0)  
   H5(Edta)+       1.183e-10   7.504e-11    -9.927   -10.125    -0.198     (0)  
   ZnOH(Edta)-3    1.382e-11   1.161e-12   -10.859   -11.935    -1.076     (0)  
   Na(Edta)-3      2.587e-12   4.284e-14   -11.587   -13.368    -1.781     (0)  
   Edta-4          6.135e-14   7.504e-16   -13.212   -15.125    -1.913     (0)  
H(0)          3.435e-19
   H2              1.718e-19   1.778e-19   -18.765   -18.750     0.015     (0)  
Na            1.500e-01
   Na+             1.500e-01   1.139e-01    -0.824    -0.943    -0.120     (0)  
   Na(Edta)-3      2.587e-12   4.284e-14   -11.587   -13.368    -1.781     (0)  
O(0)          0.000e+00
   O2              0.000e+00   0.000e+00   -54.815   -54.800     0.015     (0)  
Zn            2.000e-04
   Zn(Edta)-2      1.691e-04   5.624e-05    -3.772    -4.250    -0.478     (0)  
   Zn+2            1.836e-05   6.106e-06    -4.736    -5.214    -0.478     (0)  
   ZnH(Edta)-      9.808e-06   7.448e-06    -5.008    -5.128    -0.120     (0)  
   ZnCl+           2.362e-06   1.747e-06    -5.627    -5.758    -0.131     (0)  
   ZnCl2           3.154e-07   3.154e-07    -6.501    -6.501     0.000     (0)  
   ZnCl3-          3.859e-08   2.854e-08    -7.414    -7.545    -0.131     (0)  
   ZnCl4-2         4.948e-09   1.625e-09    -8.306    -8.789    -0.483     (0)  
   ZnOHCl          1.446e-10   1.446e-10    -9.840    -9.840     0.000     (0)  
   ZnOH+           6.087e-11   3.859e-11   -10.216   -10.413    -0.198     (0)  
   ZnOH(Edta)-3    1.382e-11   1.161e-12   -10.859   -11.935    -1.076     (0)  
   Zn(OH)2         3.866e-16   3.866e-16   -15.413   -15.413     0.000     (0)  
   Zn(OH)3-        1.932e-22   1.225e-22   -21.714   -21.912    -0.198     (0)  
   Zn(OH)4-2       1.907e-30   3.082e-31   -29.720   -30.511    -0.792     (0)  

------------------------------Saturation indices-------------------------------

  Phase               SI** log IAP   log K(298 K,   1 atm)

  Halite           -3.49     -1.89    1.60  NaCl
  O2(g)           -51.89     31.20   83.09  O2
  Zincite          -8.95      2.38   11.33  ZnO
  Zn(OH)2          -9.82      2.38   12.20  Zn(OH)2
  Zn(OH)2(am)     -10.09      2.38   12.47  Zn(OH)2
  Zn(OH)2(beta)    -9.37      2.38   11.75  Zn(OH)2
  Zn(OH)2(epsilon)  -9.15      2.38   11.53  Zn(OH)2
  Zn(OH)2(gamma)   -9.35      2.38   11.73  Zn(OH)2
  Zn2(OH)3Cl      -15.17      0.02   15.19  Zn2(OH)3Cl
  Zn5(OH)8Cl2     -36.08      2.42   38.50  Zn5(OH)8Cl2
  ZnCl2           -14.15     -7.10    7.05  ZnCl2
  Znmetal         -39.00    -13.21   25.79  Zn
  ZnO(active)      -8.80      2.38   11.19  ZnO

**For a gas, SI = log10(fugacity). Fugacity = pressure * phi / 1 atm.
  For ideal gases, phi = 1.

------------------
End of simulation.
------------------

------------------------------------
Reading input data for simulation 8.
------------------------------------

	SOLUTION 6
	pH		4.0
	Cl		0.15		mol/kgw
	Na		0.15		mol/kgw
	Zn	0.200 	mmol/kgw
	EDTA  0.200 	mmol/kgw
	END
-------------------------------------------
Beginning of initial solution calculations.
-------------------------------------------

Initial solution 6.	

-----------------------------Solution composition------------------------------

	Elements           Molality       Moles

	Cl                1.500e-01   1.500e-01
	EDTA              2.000e-04   2.000e-04
	Na                1.500e-01   1.500e-01
	Zn                2.000e-04   2.000e-04

----------------------------Description of solution----------------------------

                                       pH  =   4.000    
                                       pe  =   4.000    
                        Activity of water  =   0.995
                 Ionic strength (mol/kgw)  =   1.505e-01
                       Mass of water (kg)  =   1.000e+00
                 Total alkalinity (eq/kg)  =   2.346e-04
                         Temperature (°C)  =  25.00
                  Electrical balance (eq)  =  -2.346e-04
 Percent error, 100*(Cat-|An|)/(Cat+|An|)  =  -0.08
                               Iterations  =  10
                                  Total H  = 1.110138e+02
                                  Total O  = 5.550683e+01

----------------------------Distribution of species----------------------------

                                               Log       Log       Log    mole V
   Species          Molality    Activity  Molality  Activity     Gamma   cm³/mol

   H+              1.317e-04   1.000e-04    -3.880    -4.000    -0.120      0.00
   OH-             1.373e-10   1.002e-10    -9.862    -9.999    -0.137     (0)  
   H2O             5.551e+01   9.949e-01     1.744    -0.002     0.000     18.07
Cl            1.500e-01
   Cl-             1.500e-01   1.139e-01    -0.824    -0.943    -0.120     (0)  
   ZnCl+           1.536e-06   1.136e-06    -5.814    -5.945    -0.131     (0)  
   ZnCl2           2.051e-07   2.051e-07    -6.688    -6.688     0.000     (0)  
   ZnCl3-          2.509e-08   1.855e-08    -7.601    -7.732    -0.131     (0)  
   ZnCl4-2         3.217e-09   1.057e-09    -8.493    -8.976    -0.483     (0)  
   ZnOHCl          1.490e-10   1.490e-10    -9.827    -9.827     0.000     (0)  
Edta          2.000e-04
   Zn(Edta)-2      1.797e-04   5.977e-05    -3.745    -4.224    -0.478     (0)  
   H2(Edta)-2      1.262e-05   2.040e-06    -4.899    -5.690    -0.791     (0)  
   ZnH(Edta)-      6.577e-06   4.994e-06    -5.182    -5.302    -0.120     (0)  
   H(Edta)-3       6.567e-07   1.088e-08    -6.183    -7.963    -1.781     (0)  
   H3(Edta)-       4.232e-07   2.684e-07    -6.373    -6.571    -0.198     (0)  
   H4(Edta)        3.879e-09   3.879e-09    -8.411    -8.411     0.000     (0)  
   ZnOH(Edta)-3    2.328e-11   1.956e-12   -10.633   -11.709    -1.076     (0)  
   H5(Edta)+       1.935e-11   1.227e-11   -10.713   -10.911    -0.198     (0)  
   Na(Edta)-3      4.226e-12   7.003e-14   -11.374   -13.155    -1.781     (0)  
   Edta-4          1.003e-13   1.227e-15   -12.999   -14.911    -1.912     (0)  
H(0)          1.368e-19
   H2              6.838e-20   7.079e-20   -19.165   -19.150     0.015     (0)  
Na            1.500e-01
   Na+             1.500e-01   1.139e-01    -0.824    -0.943    -0.120     (0)  
   Na(Edta)-3      4.226e-12   7.003e-14   -11.374   -13.155    -1.781     (0)  
O(0)          0.000e+00
   O2              0.000e+00   0.000e+00   -54.015   -54.000     0.015     (0)  
Zn            2.000e-04
   Zn(Edta)-2      1.797e-04   5.977e-05    -3.745    -4.224    -0.478     (0)  
   Zn+2            1.194e-05   3.970e-06    -4.923    -5.401    -0.478     (0)  
   ZnH(Edta)-      6.577e-06   4.994e-06    -5.182    -5.302    -0.120     (0)  
   ZnCl+           1.536e-06   1.136e-06    -5.814    -5.945    -0.131     (0)  
   ZnCl2           2.051e-07   2.051e-07    -6.688    -6.688     0.000     (0)  
   ZnCl3-          2.509e-08   1.855e-08    -7.601    -7.732    -0.131     (0)  
   ZnCl4-2         3.217e-09   1.057e-09    -8.493    -8.976    -0.483     (0)  
   ZnOHCl          1.490e-10   1.490e-10    -9.827    -9.827     0.000     (0)  
   ZnOH+           6.272e-11   3.977e-11   -10.203   -10.400    -0.198     (0)  
   ZnOH(Edta)-3    2.328e-11   1.956e-12   -10.633   -11.709    -1.076     (0)  
   Zn(OH)2         6.314e-16   6.314e-16   -15.200   -15.200     0.000     (0)  
   Zn(OH)3-        5.000e-22   3.170e-22   -21.301   -21.499    -0.198     (0)  
   Zn(OH)4-2       7.821e-30   1.264e-30   -29.107   -29.898    -0.791     (0)  

------------------------------Saturation indices-------------------------------

  Phase               SI** log IAP   log K(298 K,   1 atm)

  Halite           -3.49     -1.89    1.60  NaCl
  O2(g)           -51.09     32.00   83.09  O2
  Zincite          -8.74      2.60   11.33  ZnO
  Zn(OH)2          -9.61      2.59   12.20  Zn(OH)2
  Zn(OH)2(am)      -9.88      2.59   12.47  Zn(OH)2
  Zn(OH)2(beta)    -9.16      2.59   11.75  Zn(OH)2
  Zn(OH)2(epsilon)  -8.94      2.59   11.53  Zn(OH)2
  Zn(OH)2(gamma)   -9.14      2.59   11.73  Zn(OH)2
  Zn2(OH)3Cl      -14.94      0.25   15.19  Zn2(OH)3Cl
  Zn5(OH)8Cl2     -35.41      3.09   38.50  Zn5(OH)8Cl2
  ZnCl2           -14.34     -7.29    7.05  ZnCl2
  Znmetal         -39.19    -13.40   25.79  Zn
  ZnO(active)      -8.59      2.60   11.19  ZnO

**For a gas, SI = log10(fugacity). Fugacity = pressure * phi / 1 atm.
  For ideal gases, phi = 1.

------------------
End of simulation.
------------------

------------------------------------
Reading input data for simulation 9.
------------------------------------

	SOLUTION 7
	pH		4.2
	Cl		0.15		mol/kgw
	Na		0.15		mol/kgw
	Zn	0.200 	mmol/kgw
	EDTA  0.200 	mmol/kgw
	END
-------------------------------------------
Beginning of initial solution calculations.
-------------------------------------------

Initial solution 7.	

-----------------------------Solution composition------------------------------

	Elements           Molality       Moles

	Cl                1.500e-01   1.500e-01
	EDTA              2.000e-04   2.000e-04
	Na                1.500e-01   1.500e-01
	Zn                2.000e-04   2.000e-04

----------------------------Description of solution----------------------------

                                       pH  =   4.200    
                                       pe  =   4.000    
                        Activity of water  =   0.995
                 Ionic strength (mol/kgw)  =   1.505e-01
                       Mass of water (kg)  =   1.000e+00
                 Total alkalinity (eq/kg)  =   2.953e-04
                         Temperature (°C)  =  25.00
                  Electrical balance (eq)  =  -2.953e-04
 Percent error, 100*(Cat-|An|)/(Cat+|An|)  =  -0.10
                               Iterations  =   9
                                  Total H  = 1.110138e+02
                                  Total O  = 5.550683e+01

----------------------------Distribution of species----------------------------

                                               Log       Log       Log    mole V
   Species          Molality    Activity  Molality  Activity     Gamma   cm³/mol

   H+              8.308e-05   6.310e-05    -4.080    -4.200    -0.120      0.00
   OH-             2.176e-10   1.588e-10    -9.662    -9.799    -0.137     (0)  
   H2O             5.551e+01   9.949e-01     1.744    -0.002     0.000     18.07
Cl            1.500e-01
   Cl-             1.500e-01   1.139e-01    -0.824    -0.943    -0.120     (0)  
   ZnCl+           9.961e-07   7.366e-07    -6.002    -6.133    -0.131     (0)  
   ZnCl2           1.330e-07   1.330e-07    -6.876    -6.876     0.000     (0)  
   ZnCl3-          1.627e-08   1.203e-08    -7.789    -7.920    -0.131     (0)  
   ZnCl4-2         2.086e-09   6.854e-10    -8.681    -9.164    -0.483     (0)  
   ZnOHCl          1.531e-10   1.531e-10    -9.815    -9.815     0.000     (0)  
Edta          2.000e-04
   Zn(Edta)-2      1.868e-04   6.213e-05    -3.729    -4.207    -0.478     (0)  
   H2(Edta)-2      8.053e-06   1.302e-06    -5.094    -5.885    -0.791     (0)  
   ZnH(Edta)-      4.313e-06   3.276e-06    -5.365    -5.485    -0.120     (0)  
   H(Edta)-3       6.639e-07   1.101e-08    -6.178    -7.958    -1.780     (0)  
   H3(Edta)-       1.704e-07   1.080e-07    -6.769    -6.966    -0.198     (0)  
   H4(Edta)        9.854e-10   9.854e-10    -9.006    -9.006     0.000     (0)  
   ZnOH(Edta)-3    3.835e-11   3.222e-12   -10.416   -11.492    -1.076     (0)  
   Na(Edta)-3      6.771e-12   1.123e-13   -11.169   -12.950    -1.780     (0)  
   H5(Edta)+       3.101e-12   1.966e-12   -11.509   -11.706    -0.198     (0)  
   Edta-4          1.607e-13   1.966e-15   -12.794   -14.706    -1.912     (0)  
H(0)          5.445e-20
   H2              2.722e-20   2.818e-20   -19.565   -19.550     0.015     (0)  
Na            1.500e-01
   Na+             1.500e-01   1.139e-01    -0.824    -0.943    -0.120     (0)  
   Na(Edta)-3      6.771e-12   1.123e-13   -11.169   -12.950    -1.780     (0)  
O(0)          0.000e+00
   O2              0.000e+00   0.000e+00   -53.215   -53.200     0.015     (0)  
Zn            2.000e-04
   Zn(Edta)-2      1.868e-04   6.213e-05    -3.729    -4.207    -0.478     (0)  
   Zn+2            7.740e-06   2.574e-06    -5.111    -5.589    -0.478     (0)  
   ZnH(Edta)-      4.313e-06   3.276e-06    -5.365    -5.485    -0.120     (0)  
   ZnCl+           9.961e-07   7.366e-07    -6.002    -6.133    -0.131     (0)  
   ZnCl2           1.330e-07   1.330e-07    -6.876    -6.876     0.000     (0)  
   ZnCl3-          1.627e-08   1.203e-08    -7.789    -7.920    -0.131     (0)  
   ZnCl4-2         2.086e-09   6.854e-10    -8.681    -9.164    -0.483     (0)  
   ZnOHCl          1.531e-10   1.531e-10    -9.815    -9.815     0.000     (0)  
   ZnOH+           6.446e-11   4.087e-11   -10.191   -10.389    -0.198     (0)  
   ZnOH(Edta)-3    3.835e-11   3.222e-12   -10.416   -11.492    -1.076     (0)  
   Zn(OH)2         1.029e-15   1.029e-15   -14.988   -14.988     0.000     (0)  
   Zn(OH)3-        1.291e-21   8.185e-22   -20.889   -21.087    -0.198     (0)  
   Zn(OH)4-2       3.200e-29   5.173e-30   -28.495   -29.286    -0.791     (0)  

------------------------------Saturation indices-------------------------------

  Phase               SI** log IAP   log K(298 K,   1 atm)

  Halite           -3.49     -1.89    1.60  NaCl
  O2(g)           -50.29     32.80   83.09  O2
  Zincite          -8.53      2.81   11.33  ZnO
  Zn(OH)2          -9.39      2.81   12.20  Zn(OH)2
  Zn(OH)2(am)      -9.67      2.81   12.47  Zn(OH)2
  Zn(OH)2(beta)    -8.95      2.81   11.75  Zn(OH)2
  Zn(OH)2(epsilon)  -8.73      2.81   11.53  Zn(OH)2
  Zn(OH)2(gamma)   -8.93      2.81   11.73  Zn(OH)2
  Zn2(OH)3Cl      -14.72      0.47   15.19  Zn2(OH)3Cl
  Zn5(OH)8Cl2     -34.75      3.75   38.50  Zn5(OH)8Cl2
  ZnCl2           -14.53     -7.48    7.05  ZnCl2
  Znmetal         -39.38    -13.59   25.79  Zn
  ZnO(active)      -8.38      2.81   11.19  ZnO

**For a gas, SI = log10(fugacity). Fugacity = pressure * phi / 1 atm.
  For ideal gases, phi = 1.

------------------
End of simulation.
------------------

-------------------------------------
Reading input data for simulation 10.
-------------------------------------

	SOLUTION 8
	pH		4.4
	Cl		0.15		mol/kgw
	Na		0.15		mol/kgw
	Zn	0.200 	mmol/kgw
	EDTA  0.200 	mmol/kgw
	END
-------------------------------------------
Beginning of initial solution calculations.
-------------------------------------------

Initial solution 8.	

-----------------------------Solution composition------------------------------

	Elements           Molality       Moles

	Cl                1.500e-01   1.500e-01
	EDTA              2.000e-04   2.000e-04
	Na                1.500e-01   1.500e-01
	Zn                2.000e-04   2.000e-04

----------------------------Description of solution----------------------------

                                       pH  =   4.400    
                                       pe  =   4.000    
                        Activity of water  =   0.995
                 Ionic strength (mol/kgw)  =   1.504e-01
                       Mass of water (kg)  =   1.000e+00
                 Total alkalinity (eq/kg)  =   3.338e-04
                         Temperature (°C)  =  25.00
                  Electrical balance (eq)  =  -3.338e-04
 Percent error, 100*(Cat-|An|)/(Cat+|An|)  =  -0.11
                               Iterations  =   8
                                  Total H  = 1.110137e+02
                                  Total O  = 5.550683e+01

----------------------------Distribution of species----------------------------

                                               Log       Log       Log    mole V
   Species          Molality    Activity  Molality  Activity     Gamma   cm³/mol

   H+              5.242e-05   3.981e-05    -4.280    -4.400    -0.120      0.00
   OH-             3.448e-10   2.516e-10    -9.462    -9.599    -0.137     (0)  
   H2O             5.551e+01   9.949e-01     1.744    -0.002     0.000     18.07
Cl            1.500e-01
   Cl-             1.500e-01   1.139e-01    -0.824    -0.943    -0.120     (0)  
   ZnCl+           6.477e-07   4.790e-07    -6.189    -6.320    -0.131     (0)  
   ZnCl2           8.648e-08   8.648e-08    -7.063    -7.063     0.000     (0)  
   ZnCl3-          1.058e-08   7.825e-09    -7.975    -8.107    -0.131     (0)  
   ZnCl4-2         1.356e-09   4.457e-10    -8.868    -9.351    -0.483     (0)  
   ZnOHCl          1.578e-10   1.578e-10    -9.802    -9.802     0.000     (0)  
Edta          2.000e-04
   Zn(Edta)-2      1.914e-04   6.367e-05    -3.718    -4.196    -0.478     (0)  
   H2(Edta)-2      5.052e-06   8.169e-07    -5.297    -6.088    -0.791     (0)  
   ZnH(Edta)-      2.789e-06   2.118e-06    -5.555    -5.674    -0.120     (0)  
   H(Edta)-3       6.600e-07   1.094e-08    -6.180    -7.961    -1.780     (0)  
   H3(Edta)-       6.745e-08   4.277e-08    -7.171    -7.369    -0.198     (0)  
   H4(Edta)        2.461e-10   2.461e-10    -9.609    -9.609     0.000     (0)  
   ZnOH(Edta)-3    6.228e-11   5.233e-12   -10.206   -11.281    -1.076     (0)  
   Na(Edta)-3      1.067e-11   1.769e-13   -10.972   -12.752    -1.780     (0)  
   H5(Edta)+       4.886e-13   3.099e-13   -12.311   -12.509    -0.198     (0)  
   Edta-4          2.532e-13   3.099e-15   -12.597   -14.509    -1.912     (0)  
H(0)          2.168e-20
   H2              1.084e-20   1.122e-20   -19.965   -19.950     0.015     (0)  
Na            1.500e-01
   Na+             1.500e-01   1.139e-01    -0.824    -0.943    -0.120     (0)  
   Na(Edta)-3      1.067e-11   1.769e-13   -10.972   -12.752    -1.780     (0)  
O(0)          0.000e+00
   O2              0.000e+00   0.000e+00   -52.415   -52.400     0.015     (0)  
Zn            2.000e-04
   Zn(Edta)-2      1.914e-04   6.367e-05    -3.718    -4.196    -0.478     (0)  
   Zn+2            5.033e-06   1.674e-06    -5.298    -5.776    -0.478     (0)  
   ZnH(Edta)-      2.789e-06   2.118e-06    -5.555    -5.674    -0.120     (0)  
   ZnCl+           6.477e-07   4.790e-07    -6.189    -6.320    -0.131     (0)  
   ZnCl2           8.648e-08   8.648e-08    -7.063    -7.063     0.000     (0)  
   ZnCl3-          1.058e-08   7.825e-09    -7.975    -8.107    -0.131     (0)  
   ZnCl4-2         1.356e-09   4.457e-10    -8.868    -9.351    -0.483     (0)  
   ZnOHCl          1.578e-10   1.578e-10    -9.802    -9.802     0.000     (0)  
   ZnOH+           6.643e-11   4.213e-11   -10.178   -10.375    -0.198     (0)  
   ZnOH(Edta)-3    6.228e-11   5.233e-12   -10.206   -11.281    -1.076     (0)  
   Zn(OH)2         1.680e-15   1.680e-15   -14.775   -14.775     0.000     (0)  
   Zn(OH)3-        3.341e-21   2.119e-21   -20.476   -20.674    -0.198     (0)  
   Zn(OH)4-2       1.313e-28   2.123e-29   -27.882   -28.673    -0.791     (0)  

------------------------------Saturation indices-------------------------------

  Phase               SI** log IAP   log K(298 K,   1 atm)

  Halite           -3.49     -1.89    1.60  NaCl
  O2(g)           -49.49     33.60   83.09  O2
  Zincite          -8.31      3.02   11.33  ZnO
  Zn(OH)2          -9.18      3.02   12.20  Zn(OH)2
  Zn(OH)2(am)      -9.45      3.02   12.47  Zn(OH)2
  Zn(OH)2(beta)    -8.73      3.02   11.75  Zn(OH)2
  Zn(OH)2(epsilon)  -8.51      3.02   11.53  Zn(OH)2
  Zn(OH)2(gamma)   -8.71      3.02   11.73  Zn(OH)2
  Zn2(OH)3Cl      -14.49      0.70   15.19  Zn2(OH)3Cl
  Zn5(OH)8Cl2     -34.09      4.41   38.50  Zn5(OH)8Cl2
  ZnCl2           -14.71     -7.66    7.05  ZnCl2
  Znmetal         -39.56    -13.78   25.79  Zn
  ZnO(active)      -8.17      3.02   11.19  ZnO

**For a gas, SI = log10(fugacity). Fugacity = pressure * phi / 1 atm.
  For ideal gases, phi = 1.

------------------
End of simulation.
------------------

-------------------------------------
Reading input data for simulation 11.
-------------------------------------

	SOLUTION 9
	pH		4.6
	Cl		0.15		mol/kgw
	Na		0.15		mol/kgw
	Zn	0.200 	mmol/kgw
	EDTA  0.200 	mmol/kgw
	END
-------------------------------------------
Beginning of initial solution calculations.
-------------------------------------------

Initial solution 9.	

-----------------------------Solution composition------------------------------

	Elements           Molality       Moles

	Cl                1.500e-01   1.500e-01
	EDTA              2.000e-04   2.000e-04
	Na                1.500e-01   1.500e-01
	Zn                2.000e-04   2.000e-04

----------------------------Description of solution----------------------------

                                       pH  =   4.600    
                                       pe  =   4.000    
                        Activity of water  =   0.995
                 Ionic strength (mol/kgw)  =   1.504e-01
                       Mass of water (kg)  =   1.000e+00
                 Total alkalinity (eq/kg)  =   3.582e-04
                         Temperature (°C)  =  25.00
                  Electrical balance (eq)  =  -3.582e-04
 Percent error, 100*(Cat-|An|)/(Cat+|An|)  =  -0.12
                               Iterations  =   8
                                  Total H  = 1.110137e+02
                                  Total O  = 5.550683e+01

----------------------------Distribution of species----------------------------

                                               Log       Log       Log    mole V
   Species          Molality    Activity  Molality  Activity     Gamma   cm³/mol

   H+              3.308e-05   2.512e-05    -4.480    -4.600    -0.120      0.00
   OH-             5.465e-10   3.988e-10    -9.262    -9.399    -0.137     (0)  
   H2O             5.551e+01   9.949e-01     1.744    -0.002     0.000     18.07
Cl            1.500e-01
   Cl-             1.500e-01   1.139e-01    -0.824    -0.943    -0.120     (0)  
   ZnCl+           4.245e-07   3.139e-07    -6.372    -6.503    -0.131     (0)  
   ZnCl2           5.668e-08   5.668e-08    -7.247    -7.247     0.000     (0)  
   ZnCl3-          6.935e-09   5.129e-09    -8.159    -8.290    -0.131     (0)  
   ZnCl4-2         8.890e-10   2.921e-10    -9.051    -9.534    -0.483     (0)  
   ZnOHCl          1.639e-10   1.639e-10    -9.785    -9.785     0.000     (0)  
Edta          2.000e-04
   Zn(Edta)-2      1.944e-04   6.467e-05    -3.711    -4.189    -0.478     (0)  
   H2(Edta)-2      3.116e-06   5.040e-07    -5.506    -6.298    -0.791     (0)  
   ZnH(Edta)-      1.787e-06   1.357e-06    -5.748    -5.867    -0.120     (0)  
   H(Edta)-3       6.452e-07   1.070e-08    -6.190    -7.971    -1.780     (0)  
   H3(Edta)-       2.626e-08   1.665e-08    -7.581    -7.779    -0.198     (0)  
   ZnOH(Edta)-3    1.003e-10   8.423e-12    -9.999   -11.075    -1.076     (0)  
   H4(Edta)        6.045e-11   6.045e-11   -10.219   -10.219     0.000     (0)  
   Na(Edta)-3      1.653e-11   2.742e-13   -10.782   -12.562    -1.780     (0)  
   Edta-4          3.923e-13   4.802e-15   -12.406   -14.319    -1.912     (0)  
   H5(Edta)+       7.572e-14   4.802e-14   -13.121   -13.319    -0.198     (0)  
H(0)          8.630e-21
   H2              4.315e-21   4.467e-21   -20.365   -20.350     0.015     (0)  
Na            1.500e-01
   Na+             1.500e-01   1.139e-01    -0.824    -0.943    -0.120     (0)  
   Na(Edta)-3      1.653e-11   2.742e-13   -10.782   -12.562    -1.780     (0)  
O(0)          0.000e+00
   O2              0.000e+00   0.000e+00   -51.615   -51.600     0.015     (0)  
Zn            2.000e-04
   Zn(Edta)-2      1.944e-04   6.467e-05    -3.711    -4.189    -0.478     (0)  
   Zn+2            3.299e-06   1.097e-06    -5.482    -5.960    -0.478     (0)  
   ZnH(Edta)-      1.787e-06   1.357e-06    -5.748    -5.867    -0.120     (0)  
   ZnCl+           4.245e-07   3.139e-07    -6.372    -6.503    -0.131     (0)  
   ZnCl2           5.668e-08   5.668e-08    -7.247    -7.247     0.000     (0)  
   ZnCl3-          6.935e-09   5.129e-09    -8.159    -8.290    -0.131     (0)  
   ZnCl4-2         8.890e-10   2.921e-10    -9.051    -9.534    -0.483     (0)  
   ZnOHCl          1.639e-10   1.639e-10    -9.785    -9.785     0.000     (0)  
   ZnOH(Edta)-3    1.003e-10   8.423e-12    -9.999   -11.075    -1.076     (0)  
   ZnOH+           6.900e-11   4.376e-11   -10.161   -10.359    -0.198     (0)  
   Zn(OH)2         2.766e-15   2.766e-15   -14.558   -14.558     0.000     (0)  
   Zn(OH)3-        8.718e-21   5.529e-21   -20.060   -20.257    -0.198     (0)  
   Zn(OH)4-2       5.428e-28   8.778e-29   -27.265   -28.057    -0.791     (0)  

------------------------------Saturation indices-------------------------------

  Phase               SI** log IAP   log K(298 K,   1 atm)

  Halite           -3.49     -1.89    1.60  NaCl
  O2(g)           -48.69     34.40   83.09  O2
  Zincite          -8.10      3.24   11.33  ZnO
  Zn(OH)2          -8.96      3.24   12.20  Zn(OH)2
  Zn(OH)2(am)      -9.24      3.24   12.47  Zn(OH)2
  Zn(OH)2(beta)    -8.52      3.24   11.75  Zn(OH)2
  Zn(OH)2(epsilon)  -8.30      3.24   11.53  Zn(OH)2
  Zn(OH)2(gamma)   -8.50      3.24   11.73  Zn(OH)2
  Zn2(OH)3Cl      -14.26      0.93   15.19  Zn2(OH)3Cl
  Zn5(OH)8Cl2     -33.40      5.10   38.50  Zn5(OH)8Cl2
  ZnCl2           -14.90     -7.85    7.05  ZnCl2
  Znmetal         -39.75    -13.96   25.79  Zn
  ZnO(active)      -7.95      3.24   11.19  ZnO

**For a gas, SI = log10(fugacity). Fugacity = pressure * phi / 1 atm.
  For ideal gases, phi = 1.

------------------
End of simulation.
------------------

-------------------------------------
Reading input data for simulation 12.
-------------------------------------

	SOLUTION 10
	pH		4.8
	Cl		0.15		mol/kgw
	Na		0.15		mol/kgw
	Zn	0.200 	mmol/kgw
	EDTA  0.200 	mmol/kgw
	END
-------------------------------------------
Beginning of initial solution calculations.
-------------------------------------------

Initial solution 10.	

-----------------------------Solution composition------------------------------

	Elements           Molality       Moles

	Cl                1.500e-01   1.500e-01
	EDTA              2.000e-04   2.000e-04
	Na                1.500e-01   1.500e-01
	Zn                2.000e-04   2.000e-04

----------------------------Description of solution----------------------------

                                       pH  =   4.800    
                                       pe  =   4.000    
                        Activity of water  =   0.995
                 Ionic strength (mol/kgw)  =   1.504e-01
                       Mass of water (kg)  =   1.000e+00
                 Total alkalinity (eq/kg)  =   3.736e-04
                         Temperature (°C)  =  25.00
                  Electrical balance (eq)  =  -3.736e-04
 Percent error, 100*(Cat-|An|)/(Cat+|An|)  =  -0.12
                               Iterations  =   8
                                  Total H  = 1.110137e+02
                                  Total O  = 5.550683e+01

----------------------------Distribution of species----------------------------

                                               Log       Log       Log    mole V
   Species          Molality    Activity  Molality  Activity     Gamma   cm³/mol

   H+              2.087e-05   1.585e-05    -4.680    -4.800    -0.120      0.00
   OH-             8.661e-10   6.321e-10    -9.062    -9.199    -0.137     (0)  
   H2O             5.551e+01   9.949e-01     1.744    -0.002     0.000     18.07
Cl            1.500e-01
   Cl-             1.500e-01   1.139e-01    -0.824    -0.943    -0.120     (0)  
   ZnCl+           2.819e-07   2.085e-07    -6.550    -6.681    -0.131     (0)  
   ZnCl2           3.764e-08   3.764e-08    -7.424    -7.424     0.000     (0)  
   ZnCl3-          4.606e-09   3.406e-09    -8.337    -8.468    -0.131     (0)  
   ZnCl4-2         5.904e-10   1.940e-10    -9.229    -9.712    -0.483     (0)  
   ZnOHCl          1.725e-10   1.725e-10    -9.763    -9.763     0.000     (0)  
Edta          2.000e-04
   Zn(Edta)-2      1.963e-04   6.531e-05    -3.707    -4.185    -0.478     (0)  
   H2(Edta)-2      1.887e-06   3.051e-07    -5.724    -6.516    -0.791     (0)  
   ZnH(Edta)-      1.139e-06   8.649e-07    -5.944    -6.063    -0.120     (0)  
   H(Edta)-3       6.190e-07   1.027e-08    -6.208    -7.989    -1.780     (0)  
   H3(Edta)-       1.003e-08   6.360e-09    -7.999    -8.197    -0.198     (0)  
   ZnOH(Edta)-3    1.605e-10   1.348e-11    -9.795   -10.870    -1.076     (0)  
   Na(Edta)-3      2.513e-11   4.169e-13   -10.600   -12.380    -1.780     (0)  
   H4(Edta)        1.457e-11   1.457e-11   -10.837   -10.837     0.000     (0)  
   Edta-4          5.966e-13   7.302e-15   -12.224   -14.137    -1.912     (0)  
   H5(Edta)+       1.151e-14   7.302e-15   -13.939   -14.137    -0.198     (0)  
H(0)          3.435e-21
   H2              1.718e-21   1.778e-21   -20.765   -20.750     0.015     (0)  
Na            1.500e-01
   Na+             1.500e-01   1.139e-01    -0.824    -0.943    -0.120     (0)  
   Na(Edta)-3      2.513e-11   4.169e-13   -10.600   -12.380    -1.780     (0)  
O(0)          0.000e+00
   O2              0.000e+00   0.000e+00   -50.815   -50.800     0.015     (0)  
Zn            2.000e-04
   Zn(Edta)-2      1.963e-04   6.531e-05    -3.707    -4.185    -0.478     (0)  
   Zn+2            2.191e-06   7.286e-07    -5.659    -6.137    -0.478     (0)  
   ZnH(Edta)-      1.139e-06   8.649e-07    -5.944    -6.063    -0.120     (0)  
   ZnCl+           2.819e-07   2.085e-07    -6.550    -6.681    -0.131     (0)  
   ZnCl2           3.764e-08   3.764e-08    -7.424    -7.424     0.000     (0)  
   ZnCl3-          4.606e-09   3.406e-09    -8.337    -8.468    -0.131     (0)  
   ZnCl4-2         5.904e-10   1.940e-10    -9.229    -9.712    -0.483     (0)  
   ZnOHCl          1.725e-10   1.725e-10    -9.763    -9.763     0.000     (0)  
   ZnOH(Edta)-3    1.605e-10   1.348e-11    -9.795   -10.870    -1.076     (0)  
   ZnOH+           7.263e-11   4.606e-11   -10.139   -10.337    -0.198     (0)  
   Zn(OH)2         4.614e-15   4.614e-15   -14.336   -14.336     0.000     (0)  
   Zn(OH)3-        2.305e-20   1.462e-20   -19.637   -19.835    -0.198     (0)  
   Zn(OH)4-2       2.274e-27   3.678e-28   -26.643   -27.434    -0.791     (0)  

------------------------------Saturation indices-------------------------------

  Phase               SI** log IAP   log K(298 K,   1 atm)

  Halite           -3.49     -1.89    1.60  NaCl
  O2(g)           -47.89     35.20   83.09  O2
  Zincite          -7.87      3.46   11.33  ZnO
  Zn(OH)2          -8.74      3.46   12.20  Zn(OH)2
  Zn(OH)2(am)      -9.02      3.46   12.47  Zn(OH)2
  Zn(OH)2(beta)    -8.30      3.46   11.75  Zn(OH)2
  Zn(OH)2(epsilon)  -8.08      3.46   11.53  Zn(OH)2
  Zn(OH)2(gamma)   -8.28      3.46   11.73  Zn(OH)2
  Zn2(OH)3Cl      -14.02      1.17   15.19  Zn2(OH)3Cl
  Zn5(OH)8Cl2     -32.69      5.81   38.50  Zn5(OH)8Cl2
  ZnCl2           -15.07     -8.02    7.05  ZnCl2
  Znmetal         -39.93    -14.14   25.79  Zn
  ZnO(active)      -7.73      3.46   11.19  ZnO

**For a gas, SI = log10(fugacity). Fugacity = pressure * phi / 1 atm.
  For ideal gases, phi = 1.

------------------
End of simulation.
------------------

-------------------------------------
Reading input data for simulation 13.
-------------------------------------

	SOLUTION 11
	pH		5.0
	Cl		0.15		mol/kgw
	Na		0.15		mol/kgw
	Zn	0.200 	mmol/kgw
	EDTA  0.200 	mmol/kgw
	END
-------------------------------------------
Beginning of initial solution calculations.
-------------------------------------------

Initial solution 11.	

-----------------------------Solution composition------------------------------

	Elements           Molality       Moles

	Cl                1.500e-01   1.500e-01
	EDTA              2.000e-04   2.000e-04
	Na                1.500e-01   1.500e-01
	Zn                2.000e-04   2.000e-04

----------------------------Description of solution----------------------------

                                       pH  =   5.000    
                                       pe  =   4.000    
                        Activity of water  =   0.995
                 Ionic strength (mol/kgw)  =   1.504e-01
                       Mass of water (kg)  =   1.000e+00
                 Total alkalinity (eq/kg)  =   3.833e-04
                         Temperature (°C)  =  25.00
                  Electrical balance (eq)  =  -3.833e-04
 Percent error, 100*(Cat-|An|)/(Cat+|An|)  =  -0.13
                               Iterations  =   9
                                  Total H  = 1.110137e+02
                                  Total O  = 5.550683e+01

----------------------------Distribution of species----------------------------

                                               Log       Log       Log    mole V
   Species          Molality    Activity  Molality  Activity     Gamma   cm³/mol

   H+              1.317e-05   1.000e-05    -4.880    -5.000    -0.120      0.00
   OH-             1.373e-09   1.002e-09    -8.862    -8.999    -0.137     (0)  
   H2O             5.551e+01   9.949e-01     1.744    -0.002     0.000     18.07
Cl            1.500e-01
   Cl-             1.500e-01   1.139e-01    -0.824    -0.943    -0.120     (0)  
   ZnCl+           1.907e-07   1.410e-07    -6.720    -6.851    -0.131     (0)  
   ZnCl2           2.546e-08   2.546e-08    -7.594    -7.594     0.000     (0)  
   ZnCl3-          3.116e-09   2.304e-09    -8.506    -8.637    -0.131     (0)  
   ZnCl4-2         3.994e-10   1.312e-10    -9.399    -9.882    -0.483     (0)  
   ZnOHCl          1.850e-10   1.850e-10    -9.733    -9.733     0.000     (0)  
Edta          2.000e-04
   Zn(Edta)-2      1.976e-04   6.572e-05    -3.704    -4.182    -0.478     (0)  
   H2(Edta)-2      1.117e-06   1.807e-07    -5.952    -6.743    -0.791     (0)  
   ZnH(Edta)-      7.231e-07   5.491e-07    -6.141    -6.260    -0.120     (0)  
   H(Edta)-3       5.809e-07   9.636e-09    -6.236    -8.016    -1.780     (0)  
   H3(Edta)-       3.747e-09   2.376e-09    -8.426    -8.624    -0.198     (0)  
   ZnOH(Edta)-3    2.559e-10   2.150e-11    -9.592   -10.668    -1.076     (0)  
   Na(Edta)-3      3.739e-11   6.201e-13   -10.427   -12.208    -1.780     (0)  
   H4(Edta)        3.435e-12   3.435e-12   -11.464   -11.464     0.000     (0)  
   Edta-4          8.874e-13   1.086e-14   -12.052   -13.964    -1.912     (0)  
   H5(Edta)+       1.713e-15   1.086e-15   -14.766   -14.964    -0.198     (0)  
H(0)          1.368e-21
   H2              6.838e-22   7.079e-22   -21.165   -21.150     0.015     (0)  
Na            1.500e-01
   Na+             1.500e-01   1.139e-01    -0.824    -0.943    -0.120     (0)  
   Na(Edta)-3      3.739e-11   6.201e-13   -10.427   -12.208    -1.780     (0)  
O(0)          0.000e+00
   O2              0.000e+00   0.000e+00   -50.015   -50.000     0.015     (0)  
Zn            2.000e-04
   Zn(Edta)-2      1.976e-04   6.572e-05    -3.704    -4.182    -0.478     (0)  
   Zn+2            1.482e-06   4.929e-07    -5.829    -6.307    -0.478     (0)  
   ZnH(Edta)-      7.231e-07   5.491e-07    -6.141    -6.260    -0.120     (0)  
   ZnCl+           1.907e-07   1.410e-07    -6.720    -6.851    -0.131     (0)  
   ZnCl2           2.546e-08   2.546e-08    -7.594    -7.594     0.000     (0)  
   ZnCl3-          3.116e-09   2.304e-09    -8.506    -8.637    -0.131     (0)  
   ZnCl4-2         3.994e-10   1.312e-10    -9.399    -9.882    -0.483     (0)  
   ZnOH(Edta)-3    2.559e-10   2.150e-11    -9.592   -10.668    -1.076     (0)  
   ZnOHCl          1.850e-10   1.850e-10    -9.733    -9.733     0.000     (0)  
   ZnOH+           7.787e-11   4.938e-11   -10.109   -10.306    -0.198     (0)  
   Zn(OH)2         7.840e-15   7.840e-15   -14.106   -14.106     0.000     (0)  
   Zn(OH)3-        6.207e-20   3.936e-20   -19.207   -19.405    -0.198     (0)  
   Zn(OH)4-2       9.707e-27   1.570e-27   -26.013   -26.804    -0.791     (0)  

------------------------------Saturation indices-------------------------------

  Phase               SI** log IAP   log K(298 K,   1 atm)

  Halite           -3.49     -1.89    1.60  NaCl
  O2(g)           -47.09     36.00   83.09  O2
  Zincite          -7.64      3.69   11.33  ZnO
  Zn(OH)2          -8.51      3.69   12.20  Zn(OH)2
  Zn(OH)2(am)      -8.79      3.69   12.47  Zn(OH)2
  Zn(OH)2(beta)    -8.07      3.69   11.75  Zn(OH)2
  Zn(OH)2(epsilon)  -7.85      3.69   11.53  Zn(OH)2
  Zn(OH)2(gamma)   -8.05      3.69   11.73  Zn(OH)2
  Zn2(OH)3Cl      -13.76      1.44   15.19  Zn2(OH)3Cl
  Zn5(OH)8Cl2     -31.94      6.56   38.50  Zn5(OH)8Cl2
  ZnCl2           -15.24     -8.19    7.05  ZnCl2
  Znmetal         -40.10    -14.31   25.79  Zn
  ZnO(active)      -7.50      3.69   11.19  ZnO

**For a gas, SI = log10(fugacity). Fugacity = pressure * phi / 1 atm.
  For ideal gases, phi = 1.

------------------
End of simulation.
------------------

-------------------------------------
Reading input data for simulation 14.
-------------------------------------

	SOLUTION 12
	pH		5.2
	Cl		0.15		mol/kgw
	Na		0.15		mol/kgw
	Zn	0.200 	mmol/kgw
	EDTA  0.200 	mmol/kgw
	END
-------------------------------------------
Beginning of initial solution calculations.
-------------------------------------------

Initial solution 12.	

-----------------------------Solution composition------------------------------

	Elements           Molality       Moles

	Cl                1.500e-01   1.500e-01
	EDTA              2.000e-04   2.000e-04
	Na                1.500e-01   1.500e-01
	Zn                2.000e-04   2.000e-04

----------------------------Description of solution----------------------------

                                       pH  =   5.200    
                                       pe  =   4.000    
                        Activity of water  =   0.995
                 Ionic strength (mol/kgw)  =   1.504e-01
                       Mass of water (kg)  =   1.000e+00
                 Total alkalinity (eq/kg)  =   3.894e-04
                         Temperature (°C)  =  25.00
                  Electrical balance (eq)  =  -3.894e-04
 Percent error, 100*(Cat-|An|)/(Cat+|An|)  =  -0.13
                               Iterations  =   9
                                  Total H  = 1.110137e+02
                                  Total O  = 5.550683e+01

----------------------------Distribution of species----------------------------

                                               Log       Log       Log    mole V
   Species          Molality    Activity  Molality  Activity     Gamma   cm³/mol

   H+              8.308e-06   6.310e-06    -5.080    -5.200    -0.120      0.00
   OH-             2.176e-09   1.588e-09    -8.662    -8.799    -0.137     (0)  
   H2O             5.551e+01   9.949e-01     1.744    -0.002     0.000     18.07
Cl            1.500e-01
   Cl-             1.500e-01   1.139e-01    -0.824    -0.943    -0.120     (0)  
   ZnCl+           1.320e-07   9.763e-08    -6.879    -7.010    -0.131     (0)  
   ZnCl2           1.763e-08   1.763e-08    -7.754    -7.754     0.000     (0)  
   ZnCl3-          2.157e-09   1.595e-09    -8.666    -8.797    -0.131     (0)  
   ZnCl4-2         2.765e-10   9.085e-11    -9.558   -10.042    -0.483     (0)  
   ZnOHCl          2.029e-10   2.029e-10    -9.693    -9.693     0.000     (0)  
Edta          2.000e-04
   Zn(Edta)-2      1.984e-04   6.598e-05    -3.703    -4.181    -0.478     (0)  
   H2(Edta)-2      6.451e-07   1.043e-07    -6.190    -6.982    -0.791     (0)  
   H(Edta)-3       5.316e-07   8.819e-09    -6.274    -8.055    -1.780     (0)  
   ZnH(Edta)-      4.581e-07   3.479e-07    -6.339    -6.459    -0.120     (0)  
   H3(Edta)-       1.365e-09   8.658e-10    -8.865    -9.063    -0.198     (0)  
   ZnOH(Edta)-3    4.072e-10   3.421e-11    -9.390   -10.466    -1.076     (0)  
   Na(Edta)-3      5.422e-11   8.995e-13   -10.266   -12.046    -1.780     (0)  
   Edta-4          1.287e-12   1.575e-14   -11.890   -13.803    -1.912     (0)  
   H4(Edta)        7.896e-13   7.896e-13   -12.103   -12.103     0.000     (0)  
   H5(Edta)+       2.484e-16   1.575e-16   -15.605   -15.803    -0.198     (0)  
H(0)          5.445e-22
   H2              2.722e-22   2.818e-22   -21.565   -21.550     0.015     (0)  
Na            1.500e-01
   Na+             1.500e-01   1.139e-01    -0.824    -0.943    -0.120     (0)  
   Na(Edta)-3      5.422e-11   8.995e-13   -10.266   -12.046    -1.780     (0)  
O(0)          0.000e+00
   O2              0.000e+00   0.000e+00   -49.215   -49.200     0.015     (0)  
Zn            2.000e-04
   Zn(Edta)-2      1.984e-04   6.598e-05    -3.703    -4.181    -0.478     (0)  
   Zn+2            1.026e-06   3.412e-07    -5.989    -6.467    -0.478     (0)  
   ZnH(Edta)-      4.581e-07   3.479e-07    -6.339    -6.459    -0.120     (0)  
   ZnCl+           1.320e-07   9.763e-08    -6.879    -7.010    -0.131     (0)  
   ZnCl2           1.763e-08   1.763e-08    -7.754    -7.754     0.000     (0)  
   ZnCl3-          2.157e-09   1.595e-09    -8.666    -8.797    -0.131     (0)  
   ZnOH(Edta)-3    4.072e-10   3.421e-11    -9.390   -10.466    -1.076     (0)  
   ZnCl4-2         2.765e-10   9.085e-11    -9.558   -10.042    -0.483     (0)  
   ZnOHCl          2.029e-10   2.029e-10    -9.693    -9.693     0.000     (0)  
   ZnOH+           8.542e-11   5.417e-11   -10.068   -10.266    -0.198     (0)  
   Zn(OH)2         1.363e-14   1.363e-14   -13.865   -13.865     0.000     (0)  
   Zn(OH)3-        1.711e-19   1.085e-19   -18.767   -18.965    -0.198     (0)  
   Zn(OH)4-2       4.239e-26   6.857e-27   -25.373   -26.164    -0.791     (0)  

------------------------------Saturation indices-------------------------------

  Phase               SI** log IAP   log K(298 K,   1 atm)

  Halite           -3.49     -1.89    1.60  NaCl
  O2(g)           -46.29     36.80   83.09  O2
  Zincite          -7.40      3.93   11.33  ZnO
  Zn(OH)2          -8.27      3.93   12.20  Zn(OH)2
  Zn(OH)2(am)      -8.55      3.93   12.47  Zn(OH)2
  Zn(OH)2(beta)    -7.83      3.93   11.75  Zn(OH)2
  Zn(OH)2(epsilon)  -7.61      3.93   11.53  Zn(OH)2
  Zn(OH)2(gamma)   -7.81      3.93   11.73  Zn(OH)2
  Zn2(OH)3Cl      -13.48      1.72   15.19  Zn2(OH)3Cl
  Zn5(OH)8Cl2     -31.14      7.36   38.50  Zn5(OH)8Cl2
  ZnCl2           -15.40     -8.35    7.05  ZnCl2
  Znmetal         -40.26    -14.47   25.79  Zn
  ZnO(active)      -7.26      3.93   11.19  ZnO

**For a gas, SI = log10(fugacity). Fugacity = pressure * phi / 1 atm.
  For ideal gases, phi = 1.

------------------
End of simulation.
------------------

-------------------------------------
Reading input data for simulation 15.
-------------------------------------

	SOLUTION 13
	pH		5.4
	Cl		0.15		mol/kgw
	Na		0.15		mol/kgw
	Zn	0.200 	mmol/kgw
	EDTA  0.200 	mmol/kgw
	END
-------------------------------------------
Beginning of initial solution calculations.
-------------------------------------------

Initial solution 13.	

-----------------------------Solution composition------------------------------

	Elements           Molality       Moles

	Cl                1.500e-01   1.500e-01
	EDTA              2.000e-04   2.000e-04
	Na                1.500e-01   1.500e-01
	Zn                2.000e-04   2.000e-04

----------------------------Description of solution----------------------------

                                       pH  =   5.400    
                                       pe  =   4.000    
                        Activity of water  =   0.995
                 Ionic strength (mol/kgw)  =   1.504e-01
                       Mass of water (kg)  =   1.000e+00
                 Total alkalinity (eq/kg)  =   3.933e-04
                         Temperature (°C)  =  25.00
                  Electrical balance (eq)  =  -3.933e-04
 Percent error, 100*(Cat-|An|)/(Cat+|An|)  =  -0.13
                               Iterations  =   8
                                  Total H  = 1.110137e+02
                                  Total O  = 5.550683e+01

----------------------------Distribution of species----------------------------

                                               Log       Log       Log    mole V
   Species          Molality    Activity  Molality  Activity     Gamma   cm³/mol

   H+              5.242e-06   3.981e-06    -5.280    -5.400    -0.120      0.00
   OH-             3.448e-09   2.516e-09    -8.462    -8.599    -0.137     (0)  
   H2O             5.551e+01   9.949e-01     1.744    -0.002     0.000     18.07
Cl            1.500e-01
   Cl-             1.500e-01   1.139e-01    -0.824    -0.943    -0.120     (0)  
   ZnCl+           9.374e-08   6.933e-08    -7.028    -7.159    -0.131     (0)  
   ZnCl2           1.252e-08   1.252e-08    -7.903    -7.903     0.000     (0)  
   ZnCl3-          1.531e-09   1.133e-09    -8.815    -8.946    -0.131     (0)  
   ZnOHCl          2.284e-10   2.284e-10    -9.641    -9.641     0.000     (0)  
   ZnCl4-2         1.963e-10   6.451e-11    -9.707   -10.190    -0.483     (0)  
Edta          2.000e-04
   Zn(Edta)-2      1.989e-04   6.615e-05    -3.701    -4.179    -0.478     (0)  
   H(Edta)-3       4.736e-07   7.856e-09    -6.325    -8.105    -1.780     (0)  
   H2(Edta)-2      3.626e-07   5.864e-08    -6.441    -7.232    -0.791     (0)  
   ZnH(Edta)-      2.898e-07   2.201e-07    -6.538    -6.657    -0.120     (0)  
   ZnOH(Edta)-3    6.470e-10   5.436e-11    -9.189   -10.265    -1.076     (0)  
   H3(Edta)-       4.842e-10   3.070e-10    -9.315    -9.513    -0.198     (0)  
   Na(Edta)-3      7.655e-11   1.270e-12   -10.116   -11.896    -1.780     (0)  
   Edta-4          1.817e-12   2.224e-14   -11.741   -13.653    -1.912     (0)  
   H4(Edta)        1.767e-13   1.767e-13   -12.753   -12.753     0.000     (0)  
   H5(Edta)+       3.508e-17   2.224e-17   -16.455   -16.653    -0.198     (0)  
H(0)          2.168e-22
   H2              1.084e-22   1.122e-22   -21.965   -21.950     0.015     (0)  
Na            1.500e-01
   Na+             1.500e-01   1.139e-01    -0.824    -0.943    -0.120     (0)  
   Na(Edta)-3      7.655e-11   1.270e-12   -10.116   -11.896    -1.780     (0)  
O(0)          0.000e+00
   O2              0.000e+00   0.000e+00   -48.415   -48.400     0.015     (0)  
Zn            2.000e-04
   Zn(Edta)-2      1.989e-04   6.615e-05    -3.701    -4.179    -0.478     (0)  
   Zn+2            7.284e-07   2.423e-07    -6.138    -6.616    -0.478     (0)  
   ZnH(Edta)-      2.898e-07   2.201e-07    -6.538    -6.657    -0.120     (0)  
   ZnCl+           9.374e-08   6.933e-08    -7.028    -7.159    -0.131     (0)  
   ZnCl2           1.252e-08   1.252e-08    -7.903    -7.903     0.000     (0)  
   ZnCl3-          1.531e-09   1.133e-09    -8.815    -8.946    -0.131     (0)  
   ZnOH(Edta)-3    6.470e-10   5.436e-11    -9.189   -10.265    -1.076     (0)  
   ZnOHCl          2.284e-10   2.284e-10    -9.641    -9.641     0.000     (0)  
   ZnCl4-2         1.963e-10   6.451e-11    -9.707   -10.190    -0.483     (0)  
   ZnOH+           9.614e-11   6.097e-11   -10.017   -10.215    -0.198     (0)  
   Zn(OH)2         2.432e-14   2.432e-14   -13.614   -13.614     0.000     (0)  
   Zn(OH)3-        4.836e-19   3.067e-19   -18.316   -18.513    -0.198     (0)  
   Zn(OH)4-2       1.899e-25   3.072e-26   -24.721   -25.513    -0.791     (0)  

------------------------------Saturation indices-------------------------------

  Phase               SI** log IAP   log K(298 K,   1 atm)

  Halite           -3.49     -1.89    1.60  NaCl
  O2(g)           -45.49     37.60   83.09  O2
  Zincite          -7.15      4.18   11.33  ZnO
  Zn(OH)2          -8.02      4.18   12.20  Zn(OH)2
  Zn(OH)2(am)      -8.29      4.18   12.47  Zn(OH)2
  Zn(OH)2(beta)    -7.57      4.18   11.75  Zn(OH)2
  Zn(OH)2(epsilon)  -7.35      4.18   11.53  Zn(OH)2
  Zn(OH)2(gamma)   -7.55      4.18   11.73  Zn(OH)2
  Zn2(OH)3Cl      -13.17      2.02   15.19  Zn2(OH)3Cl
  Zn5(OH)8Cl2     -30.28      8.22   38.50  Zn5(OH)8Cl2
  ZnCl2           -15.55     -8.50    7.05  ZnCl2
  Znmetal         -40.40    -14.62   25.79  Zn
  ZnO(active)      -7.01      4.18   11.19  ZnO

**For a gas, SI = log10(fugacity). Fugacity = pressure * phi / 1 atm.
  For ideal gases, phi = 1.

------------------
End of simulation.
------------------

-------------------------------------
Reading input data for simulation 16.
-------------------------------------

	SOLUTION 14
	pH		5.6
	Cl		0.15		mol/kgw
	Na		0.15		mol/kgw
	Zn	0.200 	mmol/kgw
	EDTA  0.200 	mmol/kgw
	END
-------------------------------------------
Beginning of initial solution calculations.
-------------------------------------------

Initial solution 14.	

-----------------------------Solution composition------------------------------

	Elements           Molality       Moles

	Cl                1.500e-01   1.500e-01
	EDTA              2.000e-04   2.000e-04
	Na                1.500e-01   1.500e-01
	Zn                2.000e-04   2.000e-04

----------------------------Description of solution----------------------------

                                       pH  =   5.600    
                                       pe  =   4.000    
                        Activity of water  =   0.995
                 Ionic strength (mol/kgw)  =   1.504e-01
                       Mass of water (kg)  =   1.000e+00
                 Total alkalinity (eq/kg)  =   3.957e-04
                         Temperature (°C)  =  25.00
                  Electrical balance (eq)  =  -3.957e-04
 Percent error, 100*(Cat-|An|)/(Cat+|An|)  =  -0.13
                               Iterations  =   8
                                  Total H  = 1.110137e+02
                                  Total O  = 5.550683e+01

----------------------------Distribution of species----------------------------

                                               Log       Log       Log    mole V
   Species          Molality    Activity  Molality  Activity     Gamma   cm³/mol

   H+              3.308e-06   2.512e-06    -5.480    -5.600    -0.120      0.00
   OH-             5.465e-09   3.988e-09    -8.262    -8.399    -0.137     (0)  
   H2O             5.551e+01   9.949e-01     1.744    -0.002     0.000     18.07
Cl            1.500e-01
   Cl-             1.500e-01   1.139e-01    -0.824    -0.943    -0.120     (0)  
   ZnCl+           6.829e-08   5.050e-08    -7.166    -7.297    -0.131     (0)  
   ZnCl2           9.118e-09   9.118e-09    -8.040    -8.040     0.000     (0)  
   ZnCl3-          1.116e-09   8.250e-10    -8.953    -9.084    -0.131     (0)  
   ZnOHCl          2.637e-10   2.637e-10    -9.579    -9.579     0.000     (0)  
   ZnCl4-2         1.430e-10   4.699e-11    -9.845   -10.328    -0.483     (0)  
Edta          2.000e-04
   Zn(Edta)-2      1.992e-04   6.626e-05    -3.701    -4.179    -0.478     (0)  
   H(Edta)-3       4.109e-07   6.816e-09    -6.386    -8.166    -1.780     (0)  
   H2(Edta)-2      1.985e-07   3.210e-08    -6.702    -7.493    -0.791     (0)  
   ZnH(Edta)-      1.831e-07   1.391e-07    -6.737    -6.857    -0.120     (0)  
   ZnOH(Edta)-3    1.027e-09   8.631e-11    -8.988   -10.064    -1.076     (0)  
   H3(Edta)-       1.672e-10   1.061e-10    -9.777    -9.974    -0.198     (0)  
   Na(Edta)-3      1.053e-10   1.746e-12    -9.978   -11.758    -1.780     (0)  
   Edta-4          2.499e-12   3.059e-14   -11.602   -13.514    -1.912     (0)  
   H4(Edta)        3.851e-14   3.851e-14   -13.414   -13.414     0.000     (0)  
   H5(Edta)+       4.823e-18   3.059e-18   -17.317   -17.514    -0.198     (0)  
H(0)          8.630e-23
   H2              4.315e-23   4.467e-23   -22.365   -22.350     0.015     (0)  
Na            1.500e-01
   Na+             1.500e-01   1.139e-01    -0.824    -0.943    -0.120     (0)  
   Na(Edta)-3      1.053e-10   1.746e-12    -9.978   -11.758    -1.780     (0)  
O(0)          0.000e+00
   O2              0.000e+00   0.000e+00   -47.615   -47.600     0.015     (0)  
Zn            2.000e-04
   Zn(Edta)-2      1.992e-04   6.626e-05    -3.701    -4.179    -0.478     (0)  
   Zn+2            5.306e-07   1.765e-07    -6.275    -6.753    -0.478     (0)  
   ZnH(Edta)-      1.831e-07   1.391e-07    -6.737    -6.857    -0.120     (0)  
   ZnCl+           6.829e-08   5.050e-08    -7.166    -7.297    -0.131     (0)  
   ZnCl2           9.118e-09   9.118e-09    -8.040    -8.040     0.000     (0)  
   ZnCl3-          1.116e-09   8.250e-10    -8.953    -9.084    -0.131     (0)  
   ZnOH(Edta)-3    1.027e-09   8.631e-11    -8.988   -10.064    -1.076     (0)  
   ZnOHCl          2.637e-10   2.637e-10    -9.579    -9.579     0.000     (0)  
   ZnCl4-2         1.430e-10   4.699e-11    -9.845   -10.328    -0.483     (0)  
   ZnOH+           1.110e-10   7.039e-11    -9.955   -10.152    -0.198     (0)  
   Zn(OH)2         4.449e-14   4.449e-14   -13.352   -13.352     0.000     (0)  
   Zn(OH)3-        1.402e-18   8.893e-19   -17.853   -18.051    -0.198     (0)  
   Zn(OH)4-2       8.730e-25   1.412e-25   -24.059   -24.850    -0.791     (0)  

------------------------------Saturation indices-------------------------------

  Phase               SI** log IAP   log K(298 K,   1 atm)

  Halite           -3.49     -1.89    1.60  NaCl
  O2(g)           -44.69     38.40   83.09  O2
  Zincite          -6.89      4.44   11.33  ZnO
[...]
   H3(Edta)-       1.127e-19   7.147e-20   -18.948   -19.146    -0.198     (0)  
   H4(Edta)        4.113e-27   4.113e-27   -26.386   -26.386     0.000     (0)  
   H5(Edta)+       8.165e-35   5.178e-35   -34.088   -34.286    -0.198     (0)  
H(0)          2.168e-30
   H2              1.084e-30   1.122e-30   -29.965   -29.950     0.015     (0)  
Na            1.500e-01
   Na+             1.500e-01   1.139e-01    -0.824    -0.943    -0.120     (0)  
   Na(Edta)-3      1.783e-08   2.956e-10    -7.749    -9.529    -1.780     (0)  
O(0)          7.700e-33
   O2              3.850e-33   3.985e-33   -32.415   -32.400     0.015     (0)  
Zn            2.000e-04
   Zn(Edta)-2      1.937e-04   6.442e-05    -3.713    -4.191    -0.478     (0)  
   ZnOH(Edta)-3    6.301e-06   5.294e-07    -5.201    -6.276    -1.076     (0)  
   Zn(OH)2         1.017e-08   1.017e-08    -7.993    -7.993     0.000     (0)  
   ZnOHCl          9.554e-09   9.554e-09    -8.020    -8.020     0.000     (0)  
   ZnOH+           4.022e-09   2.551e-09    -8.396    -8.593    -0.198     (0)  
   Zn+2            3.047e-09   1.014e-09    -8.516    -8.994    -0.478     (0)  
   Zn(OH)3-        2.023e-09   1.283e-09    -8.694    -8.892    -0.198     (0)  
   ZnCl+           3.922e-10   2.900e-10    -9.407    -9.538    -0.131     (0)  
   ZnCl2           5.236e-11   5.236e-11   -10.281   -10.281     0.000     (0)  
   ZnH(Edta)-      2.822e-11   2.143e-11   -10.549   -10.669    -0.120     (0)  
   Zn(OH)4-2       7.947e-12   1.285e-12   -11.100   -11.891    -0.791     (0)  
   ZnCl3-          6.406e-12   4.738e-12   -11.193   -11.324    -0.131     (0)  
   ZnCl4-2         8.213e-13   2.699e-13   -12.085   -12.569    -0.483     (0)  

------------------------------Saturation indices-------------------------------

  Phase               SI** log IAP   log K(298 K,   1 atm)

  Halite           -3.49     -1.89    1.60  NaCl
  O2(g)           -29.49     53.60   83.09  O2
  Zincite          -1.53      9.80   11.33  ZnO
  Zn(OH)2          -2.40      9.80   12.20  Zn(OH)2
  Zn(OH)2(am)      -2.67      9.80   12.47  Zn(OH)2
  Zn(OH)2(beta)    -1.95      9.80   11.75  Zn(OH)2
  Zn(OH)2(epsilon)  -1.73      9.80   11.53  Zn(OH)2
  Zn(OH)2(gamma)   -1.93      9.80   11.73  Zn(OH)2
  Zn2(OH)3Cl       -5.93      9.26   15.19  Zn2(OH)3Cl
  Zn5(OH)8Cl2     -10.18     28.32   38.50  Zn5(OH)8Cl2
  ZnCl2           -17.93    -10.88    7.05  ZnCl2
  Znmetal         -42.78    -16.99   25.79  Zn
  ZnO(active)      -1.38      9.80   11.19  ZnO

**For a gas, SI = log10(fugacity). Fugacity = pressure * phi / 1 atm.
  For ideal gases, phi = 1.

------------------
End of simulation.
------------------

-------------------------------------
Reading input data for simulation 36.
-------------------------------------

	SOLUTION 34
	pH		9.6
	Cl		0.15		mol/kgw
	Na		0.15		mol/kgw
	Zn	0.200 	mmol/kgw
	EDTA  0.200 	mmol/kgw
	END
-------------------------------------------
Beginning of initial solution calculations.
-------------------------------------------

Initial solution 34.	

-----------------------------Solution composition------------------------------

	Elements           Molality       Moles

	Cl                1.500e-01   1.500e-01
	EDTA              2.000e-04   2.000e-04
	Na                1.500e-01   1.500e-01
	Zn                2.000e-04   2.000e-04

----------------------------Description of solution----------------------------

                                       pH  =   9.600    
                                       pe  =   4.000    
                        Activity of water  =   0.995
                 Ionic strength (mol/kgw)  =   1.505e-01
                       Mass of water (kg)  =   1.000e+00
                 Total alkalinity (eq/kg)  =   4.645e-04
                         Temperature (°C)  =  25.00
                  Electrical balance (eq)  =  -4.645e-04
 Percent error, 100*(Cat-|An|)/(Cat+|An|)  =  -0.15
                               Iterations  =   6
                                  Total H  = 1.110137e+02
                                  Total O  = 5.550690e+01

----------------------------Distribution of species----------------------------

                                               Log       Log       Log    mole V
   Species          Molality    Activity  Molality  Activity     Gamma   cm³/mol

   OH-             5.465e-05   3.988e-05    -4.262    -4.399    -0.137     (0)  
   H+              3.308e-10   2.512e-10    -9.480    -9.600    -0.120      0.00
   H2O             5.551e+01   9.949e-01     1.744    -0.002     0.000     18.07
Cl            1.500e-01
   Cl-             1.500e-01   1.139e-01    -0.824    -0.943    -0.120     (0)  
   ZnOHCl          9.836e-09   9.836e-09    -8.007    -8.007     0.000     (0)  
   ZnCl+           2.547e-10   1.884e-10    -9.594    -9.725    -0.131     (0)  
   ZnCl2           3.401e-11   3.401e-11   -10.468   -10.468     0.000     (0)  
   ZnCl3-          4.161e-12   3.077e-12   -11.381   -11.512    -0.131     (0)  
   ZnCl4-2         5.335e-13   1.753e-13   -12.273   -12.756    -0.483     (0)  
Edta          2.000e-04
   Zn(Edta)-2      1.902e-04   6.325e-05    -3.721    -4.199    -0.478     (0)  
   ZnOH(Edta)-3    9.806e-06   8.238e-07    -5.009    -6.084    -1.076     (0)  
   Na(Edta)-3      2.695e-08   4.468e-10    -7.569    -9.350    -1.780     (0)  
   H(Edta)-3       1.052e-08   1.744e-10    -7.978    -9.758    -1.780     (0)  
   Edta-4          6.395e-10   7.826e-12    -9.194   -11.106    -1.912     (0)  
   ZnH(Edta)-      1.748e-11   1.327e-11   -10.757   -10.877    -0.120     (0)  
   H2(Edta)-2      5.080e-13   8.214e-14   -12.294   -13.085    -0.791     (0)  
   H3(Edta)-       4.279e-20   2.714e-20   -19.369   -19.566    -0.198     (0)  
   H4(Edta)        9.853e-28   9.853e-28   -27.006   -27.006     0.000     (0)  
   H5(Edta)+       1.234e-35   7.826e-36   -34.909   -35.106    -0.198     (0)  
H(0)          8.629e-31
   H2              4.315e-31   4.467e-31   -30.365   -30.350     0.015     (0)  
Na            1.500e-01
   Na+             1.500e-01   1.139e-01    -0.824    -0.943    -0.120     (0)  
   Na(Edta)-3      2.695e-08   4.468e-10    -7.569    -9.350    -1.780     (0)  
O(0)          4.858e-32
   O2              2.429e-32   2.515e-32   -31.615   -31.600     0.015     (0)  
Zn            2.000e-04
   Zn(Edta)-2      1.902e-04   6.325e-05    -3.721    -4.199    -0.478     (0)  
   ZnOH(Edta)-3    9.806e-06   8.238e-07    -5.009    -6.084    -1.076     (0)  
   Zn(OH)2         1.660e-08   1.660e-08    -7.780    -7.780     0.000     (0)  
   ZnOHCl          9.836e-09   9.836e-09    -8.007    -8.007     0.000     (0)  
   Zn(OH)3-        5.232e-09   3.318e-09    -8.281    -8.479    -0.198     (0)  
   ZnOH+           4.141e-09   2.626e-09    -8.383    -8.581    -0.198     (0)  
   Zn+2            1.980e-09   6.584e-10    -8.703    -9.182    -0.478     (0)  
   ZnCl+           2.547e-10   1.884e-10    -9.594    -9.725    -0.131     (0)  
   ZnCl2           3.401e-11   3.401e-11   -10.468   -10.468     0.000     (0)  
   Zn(OH)4-2       3.258e-11   5.267e-12   -10.487   -11.278    -0.791     (0)  
   ZnH(Edta)-      1.748e-11   1.327e-11   -10.757   -10.877    -0.120     (0)  
   ZnCl3-          4.161e-12   3.077e-12   -11.381   -11.512    -0.131     (0)  
   ZnCl4-2         5.335e-13   1.753e-13   -12.273   -12.756    -0.483     (0)  

------------------------------Saturation indices-------------------------------

  Phase               SI** log IAP   log K(298 K,   1 atm)

  Halite           -3.49     -1.89    1.60  NaCl
  O2(g)           -28.69     54.40   83.09  O2
  Zincite          -1.32     10.02   11.33  ZnO
  Zn(OH)2          -2.19     10.01   12.20  Zn(OH)2
  Zn(OH)2(am)      -2.46     10.01   12.47  Zn(OH)2
  Zn(OH)2(beta)    -1.74     10.01   11.75  Zn(OH)2
  Zn(OH)2(epsilon)  -1.52     10.01   11.53  Zn(OH)2
  Zn(OH)2(gamma)   -1.72     10.01   11.73  Zn(OH)2
  Zn2(OH)3Cl       -5.70      9.49   15.19  Zn2(OH)3Cl
  Zn5(OH)8Cl2      -9.51     28.99   38.50  Zn5(OH)8Cl2
  ZnCl2           -18.12    -11.07    7.05  ZnCl2
  Znmetal         -42.97    -17.18   25.79  Zn
  ZnO(active)      -1.17     10.02   11.19  ZnO

**For a gas, SI = log10(fugacity). Fugacity = pressure * phi / 1 atm.
  For ideal gases, phi = 1.

------------------
End of simulation.
------------------

-------------------------------------
Reading input data for simulation 37.
-------------------------------------

	SOLUTION 35
	pH		9.8
	Cl		0.15		mol/kgw
	Na		0.15		mol/kgw
	Zn	0.200 	mmol/kgw
	EDTA  0.200 	mmol/kgw
	END
-------------------------------------------
Beginning of initial solution calculations.
-------------------------------------------

Initial solution 35.	

-----------------------------Solution composition------------------------------

	Elements           Molality       Moles

	Cl                1.500e-01   1.500e-01
	EDTA              2.000e-04   2.000e-04
	Na                1.500e-01   1.500e-01
	Zn                2.000e-04   2.000e-04

----------------------------Description of solution----------------------------

                                       pH  =   9.800    
                                       pe  =   4.000    
                        Activity of water  =   0.995
                 Ionic strength (mol/kgw)  =   1.505e-01
                       Mass of water (kg)  =   1.000e+00
                 Total alkalinity (eq/kg)  =   5.018e-04
                         Temperature (°C)  =  25.00
                  Electrical balance (eq)  =  -5.018e-04
 Percent error, 100*(Cat-|An|)/(Cat+|An|)  =  -0.17
                               Iterations  =   6
                                  Total H  = 1.110138e+02
                                  Total O  = 5.550693e+01

----------------------------Distribution of species----------------------------

                                               Log       Log       Log    mole V
   Species          Molality    Activity  Molality  Activity     Gamma   cm³/mol

   OH-             8.662e-05   6.321e-05    -4.062    -4.199    -0.137     (0)  
   H+              2.087e-10   1.585e-10    -9.680    -9.800    -0.120      0.00
   H2O             5.551e+01   9.949e-01     1.744    -0.002     0.000     18.07
Cl            1.500e-01
   Cl-             1.500e-01   1.139e-01    -0.824    -0.943    -0.120     (0)  
   ZnOHCl          9.634e-09   9.634e-09    -8.016    -8.016     0.000     (0)  
   ZnCl+           1.574e-10   1.164e-10    -9.803    -9.934    -0.131     (0)  
   ZnCl2           2.102e-11   2.102e-11   -10.677   -10.677     0.000     (0)  
   ZnCl3-          2.572e-12   1.902e-12   -11.590   -11.721    -0.131     (0)  
   ZnCl4-2         3.297e-13   1.083e-13   -12.482   -12.965    -0.483     (0)  
Edta          2.000e-04
   Zn(Edta)-2      1.848e-04   6.147e-05    -3.733    -4.211    -0.478     (0)  
   ZnOH(Edta)-3    1.511e-05   1.269e-06    -4.821    -5.897    -1.076     (0)  
   Na(Edta)-3      4.241e-08   7.027e-10    -7.373    -9.153    -1.781     (0)  
   H(Edta)-3       1.044e-08   1.731e-10    -7.981    -9.762    -1.781     (0)  
   Edta-4          1.006e-09   1.231e-11    -8.997   -10.910    -1.912     (0)  
   ZnH(Edta)-      1.072e-11   8.141e-12   -10.970   -11.089    -0.120     (0)  
   H2(Edta)-2      3.181e-13   5.143e-14   -12.497   -13.289    -0.791     (0)  
   H3(Edta)-       1.691e-20   1.072e-20   -19.772   -19.970    -0.198     (0)  
   H4(Edta)        2.456e-28   2.456e-28   -27.610   -27.610     0.000     (0)  
   H5(Edta)+       1.941e-36   1.231e-36   -35.712   -35.910    -0.198     (0)  
H(0)          3.435e-31
   H2              1.718e-31   1.778e-31   -30.765   -30.750     0.015     (0)  
Na            1.500e-01
   Na+             1.500e-01   1.139e-01    -0.824    -0.943    -0.120     (0)  
   Na(Edta)-3      4.241e-08   7.027e-10    -7.373    -9.153    -1.781     (0)  
O(0)          3.065e-31
   O2              1.533e-31   1.587e-31   -30.815   -30.800     0.015     (0)  
Zn            2.000e-04
   Zn(Edta)-2      1.848e-04   6.147e-05    -3.733    -4.211    -0.478     (0)  
   ZnOH(Edta)-3    1.511e-05   1.269e-06    -4.821    -5.897    -1.076     (0)  
   Zn(OH)2         2.576e-08   2.576e-08    -7.589    -7.589     0.000     (0)  
   Zn(OH)3-        1.287e-08   8.162e-09    -7.890    -8.088    -0.198     (0)  
   ZnOHCl          9.634e-09   9.634e-09    -8.016    -8.016     0.000     (0)  
   ZnOH+           4.056e-09   2.572e-09    -8.392    -8.590    -0.198     (0)  
   Zn+2            1.223e-09   4.069e-10    -8.912    -9.391    -0.478     (0)  
   ZnCl+           1.574e-10   1.164e-10    -9.803    -9.934    -0.131     (0)  
   Zn(OH)4-2       1.270e-10   2.054e-11    -9.896   -10.687    -0.791     (0)  
   ZnCl2           2.102e-11   2.102e-11   -10.677   -10.677     0.000     (0)  
   ZnH(Edta)-      1.072e-11   8.141e-12   -10.970   -11.089    -0.120     (0)  
   ZnCl3-          2.572e-12   1.902e-12   -11.590   -11.721    -0.131     (0)  
   ZnCl4-2         3.297e-13   1.083e-13   -12.482   -12.965    -0.483     (0)  

------------------------------Saturation indices-------------------------------

  Phase               SI** log IAP   log K(298 K,   1 atm)

  Halite           -3.49     -1.89    1.60  NaCl
  O2(g)           -27.89     55.20   83.09  O2
  Zincite          -1.13     10.21   11.33  ZnO
  Zn(OH)2          -1.99     10.21   12.20  Zn(OH)2
  Zn(OH)2(am)      -2.27     10.21   12.47  Zn(OH)2
  Zn(OH)2(beta)    -1.55     10.21   11.75  Zn(OH)2
  Zn(OH)2(epsilon)  -1.33     10.21   11.53  Zn(OH)2
  Zn(OH)2(gamma)   -1.53     10.21   11.73  Zn(OH)2
  Zn2(OH)3Cl       -5.52      9.67   15.19  Zn2(OH)3Cl
  Zn5(OH)8Cl2      -8.96     29.54   38.50  Zn5(OH)8Cl2
  ZnCl2           -18.33    -11.28    7.05  ZnCl2
  Znmetal         -43.18    -17.39   25.79  Zn
  ZnO(active)      -0.98     10.21   11.19  ZnO

**For a gas, SI = log10(fugacity). Fugacity = pressure * phi / 1 atm.
  For ideal gases, phi = 1.

------------------
End of simulation.
------------------

-------------------------------------
Reading input data for simulation 38.
-------------------------------------

	SOLUTION 36
	pH		10.0
	Cl		0.15		mol/kgw
	Na		0.15		mol/kgw
	Zn	0.200 	mmol/kgw
	EDTA  0.200 	mmol/kgw
	END
-------------------------------------------
Beginning of initial solution calculations.
-------------------------------------------

Initial solution 36.	

-----------------------------Solution composition------------------------------

	Elements           Molality       Moles

	Cl                1.500e-01   1.500e-01
	EDTA              2.000e-04   2.000e-04
	Na                1.500e-01   1.500e-01
	Zn                2.000e-04   2.000e-04

----------------------------Description of solution----------------------------

                                       pH  =  10.000    
                                       pe  =   4.000    
                        Activity of water  =   0.995
                 Ionic strength (mol/kgw)  =   1.505e-01
                       Mass of water (kg)  =   1.000e+00
                 Total alkalinity (eq/kg)  =   5.604e-04
                         Temperature (°C)  =  25.00
                  Electrical balance (eq)  =  -5.604e-04
 Percent error, 100*(Cat-|An|)/(Cat+|An|)  =  -0.19
                               Iterations  =   7
                                  Total H  = 1.110138e+02
                                  Total O  = 5.550699e+01

----------------------------Distribution of species----------------------------

                                               Log       Log       Log    mole V
   Species          Molality    Activity  Molality  Activity     Gamma   cm³/mol

   OH-             1.373e-04   1.002e-04    -3.862    -3.999    -0.137     (0)  
   H+              1.317e-10   1.000e-10    -9.880   -10.000    -0.120      0.00
   H2O             5.551e+01   9.949e-01     1.744    -0.002     0.000     18.07
Cl            1.500e-01
   Cl-             1.500e-01   1.139e-01    -0.824    -0.943    -0.120     (0)  
   ZnOHCl          8.936e-09   8.936e-09    -8.049    -8.049     0.000     (0)  
   ZnCl+           9.213e-11   6.813e-11   -10.036   -10.167    -0.131     (0)  
   ZnCl2           1.230e-11   1.230e-11   -10.910   -10.910     0.000     (0)  
   ZnCl3-          1.505e-12   1.113e-12   -11.822   -11.954    -0.131     (0)  
   ZnCl4-2         1.930e-13   6.339e-14   -12.715   -13.198    -0.483     (0)  
Edta          2.000e-04
   Zn(Edta)-2      1.770e-04   5.886e-05    -3.752    -4.230    -0.478     (0)  
   ZnOH(Edta)-3    2.293e-05   1.926e-06    -4.640    -5.715    -1.076     (0)  
   Na(Edta)-3      6.942e-08   1.150e-09    -7.159    -8.939    -1.781     (0)  
   H(Edta)-3       1.079e-08   1.787e-10    -7.967    -9.748    -1.781     (0)  
   Edta-4          1.647e-09   2.014e-11    -8.783   -10.696    -1.913     (0)  
   ZnH(Edta)-      6.477e-12   4.918e-12   -11.189   -11.308    -0.120     (0)  
   H2(Edta)-2      2.073e-13   3.350e-14   -12.683   -13.475    -0.792     (0)  
   H3(Edta)-       6.949e-21   4.406e-21   -20.158   -20.356    -0.198     (0)  
   H4(Edta)        6.368e-29   6.368e-29   -28.196   -28.196     0.000     (0)  
   H5(Edta)+       3.176e-37   2.014e-37   -36.498   -36.696    -0.198     (0)  
H(0)          1.368e-31
   H2              6.838e-32   7.079e-32   -31.165   -31.150     0.015     (0)  
Na            1.500e-01
   Na+             1.500e-01   1.139e-01    -0.824    -0.943    -0.120     (0)  
   Na(Edta)-3      6.942e-08   1.150e-09    -7.159    -8.939    -1.781     (0)  
O(0)          1.934e-30
   O2              9.670e-31   1.001e-30   -30.015   -30.000     0.015     (0)  
Zn            2.000e-04
   Zn(Edta)-2      1.770e-04   5.886e-05    -3.752    -4.230    -0.478     (0)  
   ZnOH(Edta)-3    2.293e-05   1.926e-06    -4.640    -5.715    -1.076     (0)  
   Zn(OH)2         3.787e-08   3.787e-08    -7.422    -7.422     0.000     (0)  
   Zn(OH)3-        2.999e-08   1.902e-08    -7.523    -7.721    -0.198     (0)  
   ZnOHCl          8.936e-09   8.936e-09    -8.049    -8.049     0.000     (0)  
   ZnOH+           3.762e-09   2.385e-09    -8.425    -8.622    -0.198     (0)  
   Zn+2            7.160e-10   2.381e-10    -9.145    -9.623    -0.478     (0)  
   Zn(OH)4-2       4.692e-10   7.584e-11    -9.329   -10.120    -0.792     (0)  
   ZnCl+           9.213e-11   6.813e-11   -10.036   -10.167    -0.131     (0)  
   ZnCl2           1.230e-11   1.230e-11   -10.910   -10.910     0.000     (0)  
   ZnH(Edta)-      6.477e-12   4.918e-12   -11.189   -11.308    -0.120     (0)  
   ZnCl3-          1.505e-12   1.113e-12   -11.822   -11.954    -0.131     (0)  
   ZnCl4-2         1.930e-13   6.339e-14   -12.715   -13.198    -0.483     (0)  

------------------------------Saturation indices-------------------------------

  Phase               SI** log IAP   log K(298 K,   1 atm)

  Halite           -3.49     -1.89    1.60  NaCl
  O2(g)           -27.09     56.00   83.09  O2
  Zincite          -0.96     10.37   11.33  ZnO
  Zn(OH)2          -1.83     10.37   12.20  Zn(OH)2
  Zn(OH)2(am)      -2.10     10.37   12.47  Zn(OH)2
  Zn(OH)2(beta)    -1.38     10.37   11.75  Zn(OH)2
  Zn(OH)2(epsilon)  -1.16     10.37   11.53  Zn(OH)2
  Zn(OH)2(gamma)   -1.36     10.37   11.73  Zn(OH)2
  Zn2(OH)3Cl       -5.39      9.80   15.19  Zn2(OH)3Cl
  Zn5(OH)8Cl2      -8.52     29.98   38.50  Zn5(OH)8Cl2
  ZnCl2           -18.56    -11.51    7.05  ZnCl2
  Znmetal         -43.41    -17.62   25.79  Zn
  ZnO(active)      -0.81     10.37   11.19  ZnO

**For a gas, SI = log10(fugacity). Fugacity = pressure * phi / 1 atm.
  For ideal gases, phi = 1.

------------------
End of simulation.
------------------

-------------------------------------
Reading input data for simulation 39.
-------------------------------------

----------------------------------
End of Run after 0.059742 Seconds.
----------------------------------

