   Input file: /Users/wangjincheng/Desktop/git/irp-jw21/Project_jw21/pqi/0.15ZnNta.pqi
  Output file: /Users/wangjincheng/Desktop/git/irp-jw21/Project_jw21/pqo/0.15ZnNta.pqi.pqi.out
Database file: /Users/wangjincheng/Desktop/git/irp-jw21/Project_jw21/phreeqc/database/minteq.v4.dat

------------------
Reading data base.
------------------

	SOLUTION_MASTER_SPECIES
	SOLUTION_SPECIES
	SOLUTION_SPECIES
	PHASES
	PHASES
	SURFACE_MASTER_SPECIES
	SURFACE_SPECIES
	END
------------------------------------
Reading input data for simulation 1.
------------------------------------

	DATABASE /Users/wangjincheng/Desktop/git/irp-jw21/Project_jw21/phreeqc/database/minteq.v4.dat
	TITLE 04_SURFACE_COMPLEXATION
	SOLUTION_MASTER_SPECIES
	Zn		Zn+2		0.0	Zn	65.39
	Nta		Nta-3		1.0	188.117	188.117
	END
-----
TITLE
-----

 04_SURFACE_COMPLEXATION

------------------
End of simulation.
------------------

------------------------------------
Reading input data for simulation 2.
------------------------------------

	SOLUTION_SPECIES
	Zn+2 + Nta-3 = Zn(Nta)-
	log_k		10.517
	Zn+2 + 2Nta-3 = Zn(Nta)2-4
	log_k		14.163
	Zn+2 + Nta-3 + H2O = ZnOH(Nta)-2 + H+
	log_k		0.505
	END
------------------
End of simulation.
------------------

------------------------------------
Reading input data for simulation 3.
------------------------------------

	SOLUTION 1
	pH		3.0
	Cl		0.15		mol/kgw
	Na		0.15		mol/kgw
	Zn	0.200 	mmol/kgw
	Nta  0.200 	mmol/kgw
	END
-------------------------------------------
Beginning of initial solution calculations.
-------------------------------------------

Initial solution 1.	

-----------------------------Solution composition------------------------------

	Elements           Molality       Moles

	Cl                1.500e-01   1.500e-01
	Na                1.500e-01   1.500e-01
	Nta               2.000e-04   2.000e-04
	Zn                2.000e-04   2.000e-04

----------------------------Description of solution----------------------------

                                       pH  =   3.000    
                                       pe  =   4.000    
                        Activity of water  =   0.995
                 Ionic strength (mol/kgw)  =   1.513e-01
                       Mass of water (kg)  =   1.000e+00
                 Total alkalinity (eq/kg)  =  -1.354e-03
                         Temperature (°C)  =  25.00
                  Electrical balance (eq)  =   1.354e-03
 Percent error, 100*(Cat-|An|)/(Cat+|An|)  =   0.45
                               Iterations  =   8
                                  Total H  = 1.110152e+02
                                  Total O  = 5.550683e+01

----------------------------Distribution of species----------------------------

                                               Log       Log       Log    mole V
   Species          Molality    Activity  Molality  Activity     Gamma   cm³/mol

   H+              1.317e-03   1.000e-03    -2.880    -3.000    -0.120      0.00
   OH-             1.374e-11   1.002e-11   -10.862   -10.999    -0.137     (0)  
   H2O             5.551e+01   9.949e-01     1.744    -0.002     0.000     18.07
Cl            1.500e-01
   Cl-             1.500e-01   1.138e-01    -0.824    -0.944    -0.120     (0)  
   ZnCl+           2.201e-05   1.627e-05    -4.657    -4.789    -0.131     (0)  
   ZnCl2           2.936e-06   2.936e-06    -5.532    -5.532     0.000     (0)  
   ZnCl3-          3.592e-07   2.655e-07    -6.445    -6.576    -0.131     (0)  
   ZnCl4-2         4.609e-08   1.511e-08    -7.336    -7.821    -0.484     (0)  
   ZnOHCl          2.134e-10   2.134e-10    -9.671    -9.671     0.000     (0)  
H(0)          1.367e-17
   H2              6.837e-18   7.079e-18   -17.165   -17.150     0.015     (0)  
Na            1.500e-01
   Na+             1.500e-01   1.139e-01    -0.824    -0.944    -0.120     (0)  
Nta           2.000e-04
   H(Nta)-2        1.591e-04   2.558e-05    -3.798    -4.592    -0.794     (0)  
   H2(Nta)-        3.534e-05   2.238e-05    -4.452    -4.650    -0.198     (0)  
   Zn(Nta)-        3.324e-06   2.523e-06    -5.478    -5.598    -0.120     (0)  
   H3(Nta)         2.238e-06   2.238e-06    -5.650    -5.650     0.000     (0)  
   H4(Nta)+        3.534e-08   2.238e-08    -7.452    -7.650    -0.198     (0)  
   Nta-3           1.611e-11   1.349e-12   -10.793   -11.870    -1.077     (0)  
   Zn(Nta)2-4      1.238e-12   1.506e-14   -11.907   -13.822    -1.915     (0)  
   ZnOH(Nta)-2     7.354e-13   2.442e-13   -12.134   -12.612    -0.479     (0)  
O(0)          0.000e+00
   O2              0.000e+00   0.000e+00   -58.015   -58.000     0.015     (0)  
Zn            2.000e-04
   Zn+2            1.713e-04   5.689e-05    -3.766    -4.245    -0.479     (0)  
   ZnCl+           2.201e-05   1.627e-05    -4.657    -4.789    -0.131     (0)  
   Zn(Nta)-        3.324e-06   2.523e-06    -5.478    -5.598    -0.120     (0)  
   ZnCl2           2.936e-06   2.936e-06    -5.532    -5.532     0.000     (0)  
   ZnCl3-          3.592e-07   2.655e-07    -6.445    -6.576    -0.131     (0)  
   ZnCl4-2         4.609e-08   1.511e-08    -7.336    -7.821    -0.484     (0)  
   ZnOHCl          2.134e-10   2.134e-10    -9.671    -9.671     0.000     (0)  
   ZnOH+           9.000e-11   5.699e-11   -10.046   -10.244    -0.198     (0)  
   Zn(Nta)2-4      1.238e-12   1.506e-14   -11.907   -13.822    -1.915     (0)  
   ZnOH(Nta)-2     7.354e-13   2.442e-13   -12.134   -12.612    -0.479     (0)  
   Zn(OH)2         9.049e-17   9.049e-17   -16.043   -16.043     0.000     (0)  
   Zn(OH)3-        7.174e-24   4.543e-24   -23.144   -23.343    -0.198     (0)  
   Zn(OH)4-2       1.127e-32   1.812e-33   -31.948   -32.742    -0.794     (0)  

------------------------------Saturation indices-------------------------------

  Phase               SI** log IAP   log K(298 K,   1 atm)

  Halite           -3.49     -1.89    1.60  NaCl
  O2(g)           -55.09     28.00   83.09  O2
  Zincite          -9.58      1.75   11.33  ZnO
  Zn(OH)2         -10.45      1.75   12.20  Zn(OH)2
  Zn(OH)2(am)     -10.72      1.75   12.47  Zn(OH)2
  Zn(OH)2(beta)   -10.00      1.75   11.75  Zn(OH)2
  Zn(OH)2(epsilon)  -9.78      1.75   11.53  Zn(OH)2
  Zn(OH)2(gamma)   -9.98      1.75   11.73  Zn(OH)2
  Zn2(OH)3Cl      -15.63     -0.44   15.19  Zn2(OH)3Cl
  Zn5(OH)8Cl2     -37.63      0.87   38.50  Zn5(OH)8Cl2
  ZnCl2           -13.18     -6.13    7.05  ZnCl2
  Znmetal         -38.03    -12.24   25.79  Zn
  ZnO(active)      -9.44      1.75   11.19  ZnO

**For a gas, SI = log10(fugacity). Fugacity = pressure * phi / 1 atm.
  For ideal gases, phi = 1.

------------------
End of simulation.
------------------

------------------------------------
Reading input data for simulation 4.
------------------------------------

	SOLUTION 2
	pH		3.2
	Cl		0.15		mol/kgw
	Na		0.15		mol/kgw
	Zn	0.200 	mmol/kgw
	Nta  0.200 	mmol/kgw
	END
-------------------------------------------
Beginning of initial solution calculations.
-------------------------------------------

Initial solution 2.	

-----------------------------Solution composition------------------------------

	Elements           Molality       Moles

	Cl                1.500e-01   1.500e-01
	Na                1.500e-01   1.500e-01
	Nta               2.000e-04   2.000e-04
	Zn                2.000e-04   2.000e-04

----------------------------Description of solution----------------------------

                                       pH  =   3.200    
                                       pe  =   4.000    
                        Activity of water  =   0.995
                 Ionic strength (mol/kgw)  =   1.511e-01
                       Mass of water (kg)  =   1.000e+00
                 Total alkalinity (eq/kg)  =  -8.513e-04
                         Temperature (°C)  =  25.00
                  Electrical balance (eq)  =   8.513e-04
 Percent error, 100*(Cat-|An|)/(Cat+|An|)  =   0.28
                               Iterations  =   8
                                  Total H  = 1.110147e+02
                                  Total O  = 5.550683e+01

----------------------------Distribution of species----------------------------

                                               Log       Log       Log    mole V
   Species          Molality    Activity  Molality  Activity     Gamma   cm³/mol

   H+              8.311e-04   6.310e-04    -3.080    -3.200    -0.120      0.00
   OH-             2.177e-11   1.588e-11   -10.662   -10.799    -0.137     (0)  
   H2O             5.551e+01   9.949e-01     1.744    -0.002     0.000     18.07
Cl            1.500e-01
   Cl-             1.500e-01   1.139e-01    -0.824    -0.944    -0.120     (0)  
   ZnCl+           2.177e-05   1.609e-05    -4.662    -4.793    -0.131     (0)  
   ZnCl2           2.904e-06   2.904e-06    -5.537    -5.537     0.000     (0)  
   ZnCl3-          3.553e-07   2.626e-07    -6.449    -6.581    -0.131     (0)  
   ZnCl4-2         4.557e-08   1.495e-08    -7.341    -7.825    -0.484     (0)  
   ZnOHCl          3.345e-10   3.345e-10    -9.476    -9.476     0.000     (0)  
H(0)          5.444e-18
   H2              2.722e-18   2.818e-18   -17.565   -17.550     0.015     (0)  
Na            1.500e-01
   Na+             1.500e-01   1.139e-01    -0.824    -0.944    -0.120     (0)  
Nta           2.000e-04
   H(Nta)-2        1.697e-04   2.732e-05    -3.770    -4.563    -0.793     (0)  
   H2(Nta)-        2.381e-05   1.509e-05    -4.623    -4.821    -0.198     (0)  
   Zn(Nta)-        5.565e-06   4.225e-06    -5.255    -5.374    -0.120     (0)  
   H3(Nta)         9.518e-07   9.518e-07    -6.021    -6.021     0.000     (0)  
   H4(Nta)+        9.480e-09   6.006e-09    -8.023    -8.221    -0.198     (0)  
   Nta-3           2.725e-11   2.283e-12   -10.565   -11.641    -1.077     (0)  
   Zn(Nta)2-4      3.505e-12   4.269e-14   -11.455   -13.370    -1.914     (0)  
   ZnOH(Nta)-2     1.950e-12   6.480e-13   -11.710   -12.188    -0.479     (0)  
O(0)          0.000e+00
   O2              0.000e+00   0.000e+00   -57.215   -57.200     0.015     (0)  
Zn            2.000e-04
   Zn+2            1.694e-04   5.627e-05    -3.771    -4.250    -0.479     (0)  
   ZnCl+           2.177e-05   1.609e-05    -4.662    -4.793    -0.131     (0)  
   Zn(Nta)-        5.565e-06   4.225e-06    -5.255    -5.374    -0.120     (0)  
   ZnCl2           2.904e-06   2.904e-06    -5.537    -5.537     0.000     (0)  
   ZnCl3-          3.553e-07   2.626e-07    -6.449    -6.581    -0.131     (0)  
   ZnCl4-2         4.557e-08   1.495e-08    -7.341    -7.825    -0.484     (0)  
   ZnOHCl          3.345e-10   3.345e-10    -9.476    -9.476     0.000     (0)  
   ZnOH+           1.410e-10   8.933e-11    -9.851   -10.049    -0.198     (0)  
   Zn(Nta)2-4      3.505e-12   4.269e-14   -11.455   -13.370    -1.914     (0)  
   ZnOH(Nta)-2     1.950e-12   6.480e-13   -11.710   -12.188    -0.479     (0)  
   Zn(OH)2         2.248e-16   2.248e-16   -15.648   -15.648     0.000     (0)  
   Zn(OH)3-        2.824e-23   1.789e-23   -22.549   -22.747    -0.198     (0)  
   Zn(OH)4-2       7.020e-32   1.131e-32   -31.154   -31.947    -0.793     (0)  

------------------------------Saturation indices-------------------------------

  Phase               SI** log IAP   log K(298 K,   1 atm)

  Halite           -3.49     -1.89    1.60  NaCl
  O2(g)           -54.29     28.80   83.09  O2
  Zincite          -9.19      2.15   11.33  ZnO
  Zn(OH)2         -10.05      2.15   12.20  Zn(OH)2
  Zn(OH)2(am)     -10.33      2.15   12.47  Zn(OH)2
  Zn(OH)2(beta)    -9.61      2.15   11.75  Zn(OH)2
  Zn(OH)2(epsilon)  -9.39      2.15   11.53  Zn(OH)2
  Zn(OH)2(gamma)   -9.59      2.15   11.73  Zn(OH)2
  Zn2(OH)3Cl      -15.04      0.15   15.19  Zn2(OH)3Cl
  Zn5(OH)8Cl2     -36.05      2.45   38.50  Zn5(OH)8Cl2
  ZnCl2           -13.19     -6.14    7.05  ZnCl2
  Znmetal         -38.04    -12.25   25.79  Zn
  ZnO(active)      -9.04      2.15   11.19  ZnO

**For a gas, SI = log10(fugacity). Fugacity = pressure * phi / 1 atm.
  For ideal gases, phi = 1.

------------------
End of simulation.
------------------

------------------------------------
Reading input data for simulation 5.
------------------------------------

	SOLUTION 3
	pH		3.4
	Cl		0.15		mol/kgw
	Na		0.15		mol/kgw
	Zn	0.200 	mmol/kgw
	Nta  0.200 	mmol/kgw
	END
-------------------------------------------
Beginning of initial solution calculations.
-------------------------------------------

Initial solution 3.	

-----------------------------Solution composition------------------------------

	Elements           Molality       Moles

	Cl                1.500e-01   1.500e-01
	Na                1.500e-01   1.500e-01
	Nta               2.000e-04   2.000e-04
	Zn                2.000e-04   2.000e-04

----------------------------Description of solution----------------------------

                                       pH  =   3.400    
                                       pe  =   4.000    
                        Activity of water  =   0.995
                 Ionic strength (mol/kgw)  =   1.510e-01
                       Mass of water (kg)  =   1.000e+00
                 Total alkalinity (eq/kg)  =  -5.317e-04
                         Temperature (°C)  =  25.00
                  Electrical balance (eq)  =   5.317e-04
 Percent error, 100*(Cat-|An|)/(Cat+|An|)  =   0.18
                               Iterations  =   8
                                  Total H  = 1.110144e+02
                                  Total O  = 5.550683e+01

----------------------------Distribution of species----------------------------

                                               Log       Log       Log    mole V
   Species          Molality    Activity  Molality  Activity     Gamma   cm³/mol

   H+              5.243e-04   3.981e-04    -3.280    -3.400    -0.120      0.00
   OH-             3.449e-11   2.516e-11   -10.462   -10.599    -0.137     (0)  
   H2O             5.551e+01   9.949e-01     1.744    -0.002     0.000     18.07
Cl            1.500e-01
   Cl-             1.500e-01   1.139e-01    -0.824    -0.944    -0.120     (0)  
   ZnCl+           2.139e-05   1.582e-05    -4.670    -4.801    -0.131     (0)  
   ZnCl2           2.854e-06   2.854e-06    -5.545    -5.545     0.000     (0)  
   ZnCl3-          3.492e-07   2.582e-07    -6.457    -6.588    -0.131     (0)  
   ZnCl4-2         4.479e-08   1.470e-08    -7.349    -7.833    -0.484     (0)  
   ZnOHCl          5.210e-10   5.210e-10    -9.283    -9.283     0.000     (0)  
H(0)          2.167e-18
   H2              1.084e-18   1.122e-18   -17.965   -17.950     0.015     (0)  
Na            1.500e-01
   Na+             1.500e-01   1.139e-01    -0.824    -0.944    -0.120     (0)  
Nta           2.000e-04
   H(Nta)-2        1.751e-04   2.823e-05    -3.757    -4.549    -0.793     (0)  
   H2(Nta)-        1.552e-05   9.834e-06    -4.809    -5.007    -0.198     (0)  
   Zn(Nta)-        8.955e-06   6.799e-06    -5.048    -5.168    -0.120     (0)  
   H3(Nta)         3.915e-07   3.915e-07    -6.407    -6.407     0.000     (0)  
   H4(Nta)+        2.460e-09   1.559e-09    -8.609    -8.807    -0.198     (0)  
   Nta-3           4.459e-11   3.739e-12   -10.351   -11.427    -1.077     (0)  
   Zn(Nta)2-4      9.226e-12   1.125e-13   -11.035   -12.949    -1.914     (0)  
   ZnOH(Nta)-2     4.973e-12   1.653e-12   -11.303   -11.782    -0.478     (0)  
O(0)          0.000e+00
   O2              0.000e+00   0.000e+00   -56.415   -56.400     0.015     (0)  
Zn            2.000e-04
   Zn+2            1.664e-04   5.530e-05    -3.779    -4.257    -0.478     (0)  
   ZnCl+           2.139e-05   1.582e-05    -4.670    -4.801    -0.131     (0)  
   Zn(Nta)-        8.955e-06   6.799e-06    -5.048    -5.168    -0.120     (0)  
   ZnCl2           2.854e-06   2.854e-06    -5.545    -5.545     0.000     (0)  
   ZnCl3-          3.492e-07   2.582e-07    -6.457    -6.588    -0.131     (0)  
   ZnCl4-2         4.479e-08   1.470e-08    -7.349    -7.833    -0.484     (0)  
   ZnOHCl          5.210e-10   5.210e-10    -9.283    -9.283     0.000     (0)  
   ZnOH+           2.196e-10   1.391e-10    -9.658    -9.857    -0.198     (0)  
   Zn(Nta)2-4      9.226e-12   1.125e-13   -11.035   -12.949    -1.914     (0)  
   ZnOH(Nta)-2     4.973e-12   1.653e-12   -11.303   -11.782    -0.478     (0)  
   Zn(OH)2         5.549e-16   5.549e-16   -15.256   -15.256     0.000     (0)  
   Zn(OH)3-        1.105e-22   6.999e-23   -21.957   -22.155    -0.198     (0)  
   Zn(OH)4-2       4.349e-31   7.011e-32   -30.362   -31.154    -0.793     (0)  

------------------------------Saturation indices-------------------------------

  Phase               SI** log IAP   log K(298 K,   1 atm)

  Halite           -3.49     -1.89    1.60  NaCl
  O2(g)           -53.49     29.60   83.09  O2
  Zincite          -8.79      2.54   11.33  ZnO
  Zn(OH)2          -9.66      2.54   12.20  Zn(OH)2
  Zn(OH)2(am)      -9.94      2.54   12.47  Zn(OH)2
  Zn(OH)2(beta)    -9.22      2.54   11.75  Zn(OH)2
  Zn(OH)2(epsilon)  -9.00      2.54   11.53  Zn(OH)2
  Zn(OH)2(gamma)   -9.20      2.54   11.73  Zn(OH)2
  Zn2(OH)3Cl      -14.46      0.74   15.19  Zn2(OH)3Cl
  Zn5(OH)8Cl2     -34.49      4.01   38.50  Zn5(OH)8Cl2
  ZnCl2           -13.19     -6.14    7.05  ZnCl2
  Znmetal         -38.05    -12.26   25.79  Zn
  ZnO(active)      -8.65      2.54   11.19  ZnO

**For a gas, SI = log10(fugacity). Fugacity = pressure * phi / 1 atm.
  For ideal gases, phi = 1.

------------------
End of simulation.
------------------

------------------------------------
Reading input data for simulation 6.
------------------------------------

	SOLUTION 4
	pH		3.6
	Cl		0.15		mol/kgw
	Na		0.15		mol/kgw
	Zn	0.200 	mmol/kgw
	Nta  0.200 	mmol/kgw
	END
-------------------------------------------
Beginning of initial solution calculations.
-------------------------------------------

Initial solution 4.	

-----------------------------Solution composition------------------------------

	Elements           Molality       Moles

	Cl                1.500e-01   1.500e-01
	Na                1.500e-01   1.500e-01
	Nta               2.000e-04   2.000e-04
	Zn                2.000e-04   2.000e-04

----------------------------Description of solution----------------------------

                                       pH  =   3.600    
                                       pe  =   4.000    
                        Activity of water  =   0.995
                 Ionic strength (mol/kgw)  =   1.509e-01
                       Mass of water (kg)  =   1.000e+00
                 Total alkalinity (eq/kg)  =  -3.271e-04
                         Temperature (°C)  =  25.00
                  Electrical balance (eq)  =   3.271e-04
 Percent error, 100*(Cat-|An|)/(Cat+|An|)  =   0.11
                               Iterations  =   8
                                  Total H  = 1.110142e+02
                                  Total O  = 5.550683e+01

----------------------------Distribution of species----------------------------

                                               Log       Log       Log    mole V
   Species          Molality    Activity  Molality  Activity     Gamma   cm³/mol

   H+              3.308e-04   2.512e-04    -3.480    -3.600    -0.120      0.00
   OH-             5.467e-11   3.988e-11   -10.262   -10.399    -0.137     (0)  
   H2O             5.551e+01   9.949e-01     1.744    -0.002     0.000     18.07
Cl            1.500e-01
   Cl-             1.500e-01   1.139e-01    -0.824    -0.944    -0.120     (0)  
   ZnCl+           2.084e-05   1.541e-05    -4.681    -4.812    -0.131     (0)  
   ZnCl2           2.781e-06   2.781e-06    -5.556    -5.556     0.000     (0)  
   ZnCl3-          3.402e-07   2.515e-07    -6.468    -6.599    -0.131     (0)  
   ZnCl4-2         4.363e-08   1.432e-08    -7.360    -7.844    -0.484     (0)  
   ZnOHCl          8.045e-10   8.045e-10    -9.094    -9.094     0.000     (0)  
H(0)          8.629e-19
   H2              4.314e-19   4.467e-19   -18.365   -18.350     0.015     (0)  
Na            1.500e-01
   Na+             1.500e-01   1.139e-01    -0.824    -0.944    -0.120     (0)  
Nta           2.000e-04
   H(Nta)-2        1.761e-04   2.840e-05    -3.754    -4.547    -0.792     (0)  
   Zn(Nta)-        1.391e-05   1.056e-05    -4.857    -4.976    -0.120     (0)  
   H2(Nta)-        9.850e-06   6.242e-06    -5.007    -5.205    -0.198     (0)  
   H3(Nta)         1.568e-07   1.568e-07    -6.805    -6.805     0.000     (0)  
   H4(Nta)+        6.215e-10   3.939e-10    -9.207    -9.405    -0.198     (0)  
   Nta-3           7.107e-11   5.961e-12   -10.148   -11.225    -1.076     (0)  
   Zn(Nta)2-4      2.283e-11   2.787e-13   -10.641   -12.555    -1.914     (0)  
   ZnOH(Nta)-2     1.224e-11   4.069e-12   -10.912   -11.391    -0.478     (0)  
O(0)          0.000e+00
   O2              0.000e+00   0.000e+00   -55.615   -55.600     0.015     (0)  
Zn            2.000e-04
   Zn+2            1.621e-04   5.387e-05    -3.790    -4.269    -0.478     (0)  
   ZnCl+           2.084e-05   1.541e-05    -4.681    -4.812    -0.131     (0)  
   Zn(Nta)-        1.391e-05   1.056e-05    -4.857    -4.976    -0.120     (0)  
   ZnCl2           2.781e-06   2.781e-06    -5.556    -5.556     0.000     (0)  
   ZnCl3-          3.402e-07   2.515e-07    -6.468    -6.599    -0.131     (0)  
   ZnCl4-2         4.363e-08   1.432e-08    -7.360    -7.844    -0.484     (0)  
   ZnOHCl          8.045e-10   8.045e-10    -9.094    -9.094     0.000     (0)  
   ZnOH+           3.390e-10   2.148e-10    -9.470    -9.668    -0.198     (0)  
   Zn(Nta)2-4      2.283e-11   2.787e-13   -10.641   -12.555    -1.914     (0)  
   ZnOH(Nta)-2     1.224e-11   4.069e-12   -10.912   -11.391    -0.478     (0)  
   Zn(OH)2         1.358e-15   1.358e-15   -14.867   -14.867     0.000     (0)  
   Zn(OH)3-        4.283e-22   2.714e-22   -21.368   -21.566    -0.198     (0)  
   Zn(OH)4-2       2.672e-30   4.310e-31   -29.573   -30.366    -0.792     (0)  

------------------------------Saturation indices-------------------------------

  Phase               SI** log IAP   log K(298 K,   1 atm)

  Halite           -3.49     -1.89    1.60  NaCl
  O2(g)           -52.69     30.40   83.09  O2
  Zincite          -8.40      2.93   11.33  ZnO
  Zn(OH)2          -9.27      2.93   12.20  Zn(OH)2
  Zn(OH)2(am)      -9.55      2.93   12.47  Zn(OH)2
  Zn(OH)2(beta)    -8.83      2.93   11.75  Zn(OH)2
  Zn(OH)2(epsilon)  -8.61      2.93   11.53  Zn(OH)2
  Zn(OH)2(gamma)   -8.81      2.93   11.73  Zn(OH)2
  Zn2(OH)3Cl      -13.88      1.31   15.19  Zn2(OH)3Cl
  Zn5(OH)8Cl2     -32.95      5.55   38.50  Zn5(OH)8Cl2
  ZnCl2           -13.21     -6.16    7.05  ZnCl2
  Znmetal         -38.06    -12.27   25.79  Zn
  ZnO(active)      -8.26      2.93   11.19  ZnO

**For a gas, SI = log10(fugacity). Fugacity = pressure * phi / 1 atm.
  For ideal gases, phi = 1.

------------------
End of simulation.
------------------

------------------------------------
Reading input data for simulation 7.
------------------------------------

	SOLUTION 5
	pH		3.8
	Cl		0.15		mol/kgw
	Na		0.15		mol/kgw
	Zn	0.200 	mmol/kgw
	Nta  0.200 	mmol/kgw
	END
-------------------------------------------
Beginning of initial solution calculations.
-------------------------------------------

Initial solution 5.	

-----------------------------Solution composition------------------------------

	Elements           Molality       Moles

	Cl                1.500e-01   1.500e-01
	Na                1.500e-01   1.500e-01
	Nta               2.000e-04   2.000e-04
	Zn                2.000e-04   2.000e-04

----------------------------Description of solution----------------------------

                                       pH  =   3.800    
                                       pe  =   4.000    
                        Activity of water  =   0.995
                 Ionic strength (mol/kgw)  =   1.508e-01
                       Mass of water (kg)  =   1.000e+00
                 Total alkalinity (eq/kg)  =  -1.941e-04
                         Temperature (°C)  =  25.00
                  Electrical balance (eq)  =   1.941e-04
 Percent error, 100*(Cat-|An|)/(Cat+|An|)  =   0.06
                               Iterations  =   8
                                  Total H  = 1.110141e+02
                                  Total O  = 5.550683e+01

----------------------------Distribution of species----------------------------

                                               Log       Log       Log    mole V
   Species          Molality    Activity  Molality  Activity     Gamma   cm³/mol

   H+              2.087e-04   1.585e-04    -3.680    -3.800    -0.120      0.00
   OH-             8.663e-11   6.321e-11   -10.062   -10.199    -0.137     (0)  
   H2O             5.551e+01   9.949e-01     1.744    -0.002     0.000     18.07
Cl            1.500e-01
   Cl-             1.500e-01   1.139e-01    -0.824    -0.944    -0.120     (0)  
   ZnCl+           2.007e-05   1.484e-05    -4.698    -4.829    -0.131     (0)  
   ZnCl2           2.678e-06   2.678e-06    -5.572    -5.572     0.000     (0)  
   ZnCl3-          3.276e-07   2.422e-07    -6.485    -6.616    -0.131     (0)  
   ZnCl4-2         4.200e-08   1.379e-08    -7.377    -7.860    -0.484     (0)  
   ZnOHCl          1.228e-09   1.228e-09    -8.911    -8.911     0.000     (0)  
H(0)          3.435e-19
   H2              1.718e-19   1.778e-19   -18.765   -18.750     0.015     (0)  
Na            1.500e-01
   Na+             1.500e-01   1.139e-01    -0.824    -0.943    -0.120     (0)  
Nta           2.000e-04
   H(Nta)-2        1.730e-04   2.791e-05    -3.762    -4.554    -0.792     (0)  
   Zn(Nta)-        2.086e-05   1.584e-05    -4.681    -4.800    -0.120     (0)  
   H2(Nta)-        6.107e-06   3.871e-06    -5.214    -5.412    -0.198     (0)  
   H3(Nta)         6.135e-08   6.135e-08    -7.212    -7.212     0.000     (0)  
   H4(Nta)+        1.534e-10   9.723e-11    -9.814   -10.012    -0.198     (0)  
   Nta-3           1.107e-10   9.286e-12    -9.956   -11.032    -1.076     (0)  
   Zn(Nta)2-4      5.331e-11   6.509e-13   -10.273   -12.186    -1.913     (0)  
   ZnOH(Nta)-2     2.909e-11   9.671e-12   -10.536   -11.015    -0.478     (0)  
O(0)          0.000e+00
   O2              0.000e+00   0.000e+00   -54.815   -54.800     0.015     (0)  
Zn            2.000e-04
   Zn+2            1.560e-04   5.187e-05    -3.807    -4.285    -0.478     (0)  
   Zn(Nta)-        2.086e-05   1.584e-05    -4.681    -4.800    -0.120     (0)  
   ZnCl+           2.007e-05   1.484e-05    -4.698    -4.829    -0.131     (0)  
   ZnCl2           2.678e-06   2.678e-06    -5.572    -5.572     0.000     (0)  
   ZnCl3-          3.276e-07   2.422e-07    -6.485    -6.616    -0.131     (0)  
   ZnCl4-2         4.200e-08   1.379e-08    -7.377    -7.860    -0.484     (0)  
   ZnOHCl          1.228e-09   1.228e-09    -8.911    -8.911     0.000     (0)  
   ZnOH+           5.172e-10   3.278e-10    -9.286    -9.484    -0.198     (0)  
   Zn(Nta)2-4      5.331e-11   6.509e-13   -10.273   -12.186    -1.913     (0)  
   ZnOH(Nta)-2     2.909e-11   9.671e-12   -10.536   -11.015    -0.478     (0)  
   Zn(OH)2         3.284e-15   3.284e-15   -14.484   -14.484     0.000     (0)  
   Zn(OH)3-        1.642e-21   1.040e-21   -20.785   -20.983    -0.198     (0)  
   Zn(OH)4-2       1.622e-29   2.618e-30   -28.790   -29.582    -0.792     (0)  

------------------------------Saturation indices-------------------------------

  Phase               SI** log IAP   log K(298 K,   1 atm)

  Halite           -3.49     -1.89    1.60  NaCl
  O2(g)           -51.89     31.20   83.09  O2
  Zincite          -8.02      3.31   11.33  ZnO
  Zn(OH)2          -8.89      3.31   12.20  Zn(OH)2
  Zn(OH)2(am)      -9.16      3.31   12.47  Zn(OH)2
  Zn(OH)2(beta)    -8.44      3.31   11.75  Zn(OH)2
  Zn(OH)2(epsilon)  -8.22      3.31   11.53  Zn(OH)2
  Zn(OH)2(gamma)   -8.42      3.31   11.73  Zn(OH)2
  Zn2(OH)3Cl      -13.31      1.88   15.19  Zn2(OH)3Cl
  Zn5(OH)8Cl2     -31.43      7.07   38.50  Zn5(OH)8Cl2
  ZnCl2           -13.22     -6.17    7.05  ZnCl2
  Znmetal         -38.07    -12.29   25.79  Zn
  ZnO(active)      -7.88      3.31   11.19  ZnO

**For a gas, SI = log10(fugacity). Fugacity = pressure * phi / 1 atm.
  For ideal gases, phi = 1.

------------------
End of simulation.
------------------

------------------------------------
Reading input data for simulation 8.
------------------------------------

	SOLUTION 6
	pH		4.0
	Cl		0.15		mol/kgw
	Na		0.15		mol/kgw
	Zn	0.200 	mmol/kgw
	Nta  0.200 	mmol/kgw
	END
-------------------------------------------
Beginning of initial solution calculations.
-------------------------------------------

Initial solution 6.	

-----------------------------Solution composition------------------------------

	Elements           Molality       Moles

	Cl                1.500e-01   1.500e-01
	Na                1.500e-01   1.500e-01
	Nta               2.000e-04   2.000e-04
	Zn                2.000e-04   2.000e-04

----------------------------Description of solution----------------------------

                                       pH  =   4.000    
                                       pe  =   4.000    
                        Activity of water  =   0.995
                 Ionic strength (mol/kgw)  =   1.507e-01
                       Mass of water (kg)  =   1.000e+00
                 Total alkalinity (eq/kg)  =  -1.053e-04
                         Temperature (°C)  =  25.00
                  Electrical balance (eq)  =   1.053e-04
 Percent error, 100*(Cat-|An|)/(Cat+|An|)  =   0.04
                               Iterations  =   8
                                  Total H  = 1.110140e+02
                                  Total O  = 5.550683e+01

----------------------------Distribution of species----------------------------

                                               Log       Log       Log    mole V
   Species          Molality    Activity  Molality  Activity     Gamma   cm³/mol

   H+              1.317e-04   1.000e-04    -3.880    -4.000    -0.120      0.00
   OH-             1.373e-10   1.002e-10    -9.862    -9.999    -0.137     (0)  
   H2O             5.551e+01   9.949e-01     1.744    -0.002     0.000     18.07
Cl            1.500e-01
   Cl-             1.500e-01   1.139e-01    -0.824    -0.944    -0.120     (0)  
   ZnCl+           1.903e-05   1.407e-05    -4.721    -4.852    -0.131     (0)  
   ZnCl2           2.540e-06   2.540e-06    -5.595    -5.595     0.000     (0)  
   ZnCl3-          3.107e-07   2.297e-07    -6.508    -6.639    -0.131     (0)  
   ZnCl4-2         3.984e-08   1.308e-08    -7.400    -7.883    -0.484     (0)  
   ZnOHCl          1.845e-09   1.845e-09    -8.734    -8.734     0.000     (0)  
H(0)          1.368e-19
   H2              6.838e-20   7.079e-20   -19.165   -19.150     0.015     (0)  
Na            1.500e-01
   Na+             1.500e-01   1.139e-01    -0.824    -0.943    -0.120     (0)  
Nta           2.000e-04
   H(Nta)-2        1.661e-04   2.682e-05    -3.780    -4.571    -0.792     (0)  
   Zn(Nta)-        3.012e-05   2.287e-05    -4.521    -4.641    -0.120     (0)  
   H2(Nta)-        3.703e-06   2.347e-06    -5.431    -5.629    -0.198     (0)  
   H3(Nta)         2.347e-08   2.347e-08    -7.629    -7.629     0.000     (0)  
   Nta-3           1.685e-10   1.414e-11    -9.773   -10.849    -1.076     (0)  
   Zn(Nta)2-4      1.172e-10   1.432e-12    -9.931   -11.844    -1.913     (0)  
   ZnOH(Nta)-2     6.659e-11   2.214e-11   -10.177   -10.655    -0.478     (0)  
   H4(Nta)+        3.703e-11   2.347e-11   -10.431   -10.629    -0.198     (0)  
O(0)          0.000e+00
   O2              0.000e+00   0.000e+00   -54.015   -54.000     0.015     (0)  
Zn            2.000e-04
   Zn+2            1.480e-04   4.919e-05    -3.830    -4.308    -0.478     (0)  
   Zn(Nta)-        3.012e-05   2.287e-05    -4.521    -4.641    -0.120     (0)  
   ZnCl+           1.903e-05   1.407e-05    -4.721    -4.852    -0.131     (0)  
   ZnCl2           2.540e-06   2.540e-06    -5.595    -5.595     0.000     (0)  
   ZnCl3-          3.107e-07   2.297e-07    -6.508    -6.639    -0.131     (0)  
   ZnCl4-2         3.984e-08   1.308e-08    -7.400    -7.883    -0.484     (0)  
   ZnOHCl          1.845e-09   1.845e-09    -8.734    -8.734     0.000     (0)  
   ZnOH+           7.774e-10   4.928e-10    -9.109    -9.307    -0.198     (0)  
   Zn(Nta)2-4      1.172e-10   1.432e-12    -9.931   -11.844    -1.913     (0)  
   ZnOH(Nta)-2     6.659e-11   2.214e-11   -10.177   -10.655    -0.478     (0)  
   Zn(OH)2         7.824e-15   7.824e-15   -14.107   -14.107     0.000     (0)  
   Zn(OH)3-        6.197e-21   3.928e-21   -20.208   -20.406    -0.198     (0)  
   Zn(OH)4-2       9.704e-29   1.567e-29   -28.013   -28.805    -0.792     (0)  

------------------------------Saturation indices-------------------------------

  Phase               SI** log IAP   log K(298 K,   1 atm)

  Halite           -3.49     -1.89    1.60  NaCl
  O2(g)           -51.09     32.00   83.09  O2
  Zincite          -7.64      3.69   11.33  ZnO
  Zn(OH)2          -8.51      3.69   12.20  Zn(OH)2
  Zn(OH)2(am)      -8.79      3.69   12.47  Zn(OH)2
  Zn(OH)2(beta)    -8.07      3.69   11.75  Zn(OH)2
  Zn(OH)2(epsilon)  -7.85      3.69   11.53  Zn(OH)2
  Zn(OH)2(gamma)   -8.05      3.69   11.73  Zn(OH)2
  Zn2(OH)3Cl      -12.76      2.43   15.19  Zn2(OH)3Cl
  Zn5(OH)8Cl2     -29.95      8.55   38.50  Zn5(OH)8Cl2
  ZnCl2           -13.25     -6.20    7.05  ZnCl2
  Znmetal         -38.10    -12.31   25.79  Zn
  ZnO(active)      -7.50      3.69   11.19  ZnO

**For a gas, SI = log10(fugacity). Fugacity = pressure * phi / 1 atm.
  For ideal gases, phi = 1.

------------------
End of simulation.
------------------

------------------------------------
Reading input data for simulation 9.
------------------------------------

	SOLUTION 7
	pH		4.2
	Cl		0.15		mol/kgw
	Na		0.15		mol/kgw
	Zn	0.200 	mmol/kgw
	Nta  0.200 	mmol/kgw
	END
-------------------------------------------
Beginning of initial solution calculations.
-------------------------------------------

Initial solution 7.	

-----------------------------Solution composition------------------------------

	Elements           Molality       Moles

	Cl                1.500e-01   1.500e-01
	Na                1.500e-01   1.500e-01
	Nta               2.000e-04   2.000e-04
	Zn                2.000e-04   2.000e-04

----------------------------Description of solution----------------------------

                                       pH  =   4.200    
                                       pe  =   4.000    
                        Activity of water  =   0.995
                 Ionic strength (mol/kgw)  =   1.506e-01
                       Mass of water (kg)  =   1.000e+00
                 Total alkalinity (eq/kg)  =  -4.352e-05
                         Temperature (°C)  =  25.00
                  Electrical balance (eq)  =   4.352e-05
 Percent error, 100*(Cat-|An|)/(Cat+|An|)  =   0.01
                               Iterations  =   8
                                  Total H  = 1.110139e+02
                                  Total O  = 5.550683e+01

----------------------------Distribution of species----------------------------

                                               Log       Log       Log    mole V
   Species          Molality    Activity  Molality  Activity     Gamma   cm³/mol

   H+              8.309e-05   6.310e-05    -4.080    -4.200    -0.120      0.00
   OH-             2.176e-10   1.588e-10    -9.662    -9.799    -0.137     (0)  
   H2O             5.551e+01   9.949e-01     1.744    -0.002     0.000     18.07
Cl            1.500e-01
   Cl-             1.500e-01   1.139e-01    -0.824    -0.944    -0.120     (0)  
   ZnCl+           1.773e-05   1.311e-05    -4.751    -4.883    -0.131     (0)  
   ZnCl2           2.366e-06   2.366e-06    -5.626    -5.626     0.000     (0)  
   ZnCl3-          2.894e-07   2.140e-07    -6.538    -6.670    -0.131     (0)  
   ZnCl4-2         3.711e-08   1.219e-08    -7.431    -7.914    -0.484     (0)  
   ZnOHCl          2.724e-09   2.724e-09    -8.565    -8.565     0.000     (0)  
H(0)          5.445e-20
   H2              2.722e-20   2.818e-20   -19.565   -19.550     0.015     (0)  
Na            1.500e-01
   Na+             1.500e-01   1.139e-01    -0.824    -0.943    -0.120     (0)  
Nta           2.000e-04
   H(Nta)-2        1.560e-04   2.520e-05    -3.807    -4.599    -0.792     (0)  
   Zn(Nta)-        4.178e-05   3.172e-05    -4.379    -4.499    -0.120     (0)  
   H2(Nta)-        2.194e-06   1.391e-06    -5.659    -5.857    -0.198     (0)  
   H3(Nta)         8.777e-09   8.777e-09    -8.057    -8.057     0.000     (0)  
   Nta-3           2.508e-10   2.105e-11    -9.601   -10.677    -1.076     (0)  
   Zn(Nta)2-4      2.419e-10   2.956e-12    -9.616   -11.529    -1.913     (0)  
   ZnOH(Nta)-2     1.463e-10   4.866e-11    -9.835   -10.313    -0.478     (0)  
   H4(Nta)+        8.736e-12   5.538e-12   -11.059   -11.257    -0.198     (0)  
O(0)          0.000e+00
   O2              0.000e+00   0.000e+00   -53.215   -53.200     0.015     (0)  
Zn            2.000e-04
   Zn+2            1.378e-04   4.582e-05    -3.861    -4.339    -0.478     (0)  
   Zn(Nta)-        4.178e-05   3.172e-05    -4.379    -4.499    -0.120     (0)  
   ZnCl+           1.773e-05   1.311e-05    -4.751    -4.883    -0.131     (0)  
   ZnCl2           2.366e-06   2.366e-06    -5.626    -5.626     0.000     (0)  
   ZnCl3-          2.894e-07   2.140e-07    -6.538    -6.670    -0.131     (0)  
   ZnCl4-2         3.711e-08   1.219e-08    -7.431    -7.914    -0.484     (0)  
   ZnOHCl          2.724e-09   2.724e-09    -8.565    -8.565     0.000     (0)  
   ZnOH+           1.148e-09   7.275e-10    -8.940    -9.138    -0.198     (0)  
   Zn(Nta)2-4      2.419e-10   2.956e-12    -9.616   -11.529    -1.913     (0)  
   ZnOH(Nta)-2     1.463e-10   4.866e-11    -9.835   -10.313    -0.478     (0)  
   Zn(OH)2         1.831e-14   1.831e-14   -13.737   -13.737     0.000     (0)  
   Zn(OH)3-        2.298e-20   1.457e-20   -19.639   -19.837    -0.198     (0)  
   Zn(OH)4-2       5.701e-28   9.207e-29   -27.244   -28.036    -0.792     (0)  

------------------------------Saturation indices-------------------------------

  Phase               SI** log IAP   log K(298 K,   1 atm)

  Halite           -3.49     -1.89    1.60  NaCl
  O2(g)           -50.29     32.80   83.09  O2
  Zincite          -7.28      4.06   11.33  ZnO
  Zn(OH)2          -8.14      4.06   12.20  Zn(OH)2
  Zn(OH)2(am)      -8.42      4.06   12.47  Zn(OH)2
  Zn(OH)2(beta)    -7.70      4.06   11.75  Zn(OH)2
  Zn(OH)2(epsilon)  -7.48      4.06   11.53  Zn(OH)2
  Zn(OH)2(gamma)   -7.68      4.06   11.73  Zn(OH)2
  Zn2(OH)3Cl      -12.22      2.97   15.19  Zn2(OH)3Cl
  Zn5(OH)8Cl2     -28.50     10.00   38.50  Zn5(OH)8Cl2
  ZnCl2           -13.28     -6.23    7.05  ZnCl2
  Znmetal         -38.13    -12.34   25.79  Zn
  ZnO(active)      -7.13      4.06   11.19  ZnO

**For a gas, SI = log10(fugacity). Fugacity = pressure * phi / 1 atm.
  For ideal gases, phi = 1.

------------------
End of simulation.
------------------

-------------------------------------
Reading input data for simulation 10.
-------------------------------------

	SOLUTION 8
	pH		4.4
	Cl		0.15		mol/kgw
	Na		0.15		mol/kgw
	Zn	0.200 	mmol/kgw
	Nta  0.200 	mmol/kgw
	END
-------------------------------------------
Beginning of initial solution calculations.
-------------------------------------------

Initial solution 8.	

-----------------------------Solution composition------------------------------

	Elements           Molality       Moles

	Cl                1.500e-01   1.500e-01
	Na                1.500e-01   1.500e-01
	Nta               2.000e-04   2.000e-04
	Zn                2.000e-04   2.000e-04

----------------------------Description of solution----------------------------

                                       pH  =   4.400    
                                       pe  =   4.000    
                        Activity of water  =   0.995
                 Ionic strength (mol/kgw)  =   1.506e-01
                       Mass of water (kg)  =   1.000e+00
                 Total alkalinity (eq/kg)  =   1.822e-06
                         Temperature (°C)  =  25.00
                  Electrical balance (eq)  =  -1.822e-06
 Percent error, 100*(Cat-|An|)/(Cat+|An|)  =  -0.00
                               Iterations  =   8
                                  Total H  = 1.110139e+02
                                  Total O  = 5.550683e+01

----------------------------Distribution of species----------------------------

                                               Log       Log       Log    mole V
   Species          Molality    Activity  Molality  Activity     Gamma   cm³/mol

   H+              5.243e-05   3.981e-05    -4.280    -4.400    -0.120      0.00
   OH-             3.449e-10   2.516e-10    -9.462    -9.599    -0.137     (0)  
   H2O             5.551e+01   9.949e-01     1.744    -0.002     0.000     18.07
Cl            1.500e-01
   Cl-             1.500e-01   1.139e-01    -0.824    -0.944    -0.120     (0)  
   ZnCl+           1.619e-05   1.197e-05    -4.791    -4.922    -0.131     (0)  
   ZnCl2           2.161e-06   2.161e-06    -5.665    -5.665     0.000     (0)  
   ZnCl3-          2.643e-07   1.955e-07    -6.578    -6.709    -0.131     (0)  
   ZnCl4-2         3.389e-08   1.113e-08    -7.470    -7.953    -0.484     (0)  
   ZnOHCl          3.943e-09   3.943e-09    -8.404    -8.404     0.000     (0)  
H(0)          2.168e-20
   H2              1.084e-20   1.122e-20   -19.965   -19.950     0.015     (0)  
Na            1.500e-01
   Na+             1.500e-01   1.139e-01    -0.824    -0.943    -0.120     (0)  
Nta           2.000e-04
   H(Nta)-2        1.432e-04   2.314e-05    -3.844    -4.636    -0.792     (0)  
   Zn(Nta)-        5.552e-05   4.216e-05    -4.256    -4.375    -0.120     (0)  
   H2(Nta)-        1.271e-06   8.059e-07    -5.896    -6.094    -0.198     (0)  
   H3(Nta)         3.208e-09   3.208e-09    -8.494    -8.494     0.000     (0)  
   Zn(Nta)2-4      4.676e-10   5.717e-12    -9.330   -11.243    -1.913     (0)  
   Nta-3           3.649e-10   3.064e-11    -9.438   -10.514    -1.076     (0)  
   ZnOH(Nta)-2     3.082e-10   1.025e-10    -9.511    -9.989    -0.478     (0)  
   H4(Nta)+        2.015e-12   1.277e-12   -11.696   -11.894    -0.198     (0)  
O(0)          0.000e+00
   O2              0.000e+00   0.000e+00   -52.415   -52.400     0.015     (0)  
Zn            2.000e-04
   Zn+2            1.258e-04   4.184e-05    -3.900    -4.378    -0.478     (0)  
   Zn(Nta)-        5.552e-05   4.216e-05    -4.256    -4.375    -0.120     (0)  
   ZnCl+           1.619e-05   1.197e-05    -4.791    -4.922    -0.131     (0)  
   ZnCl2           2.161e-06   2.161e-06    -5.665    -5.665     0.000     (0)  
   ZnCl3-          2.643e-07   1.955e-07    -6.578    -6.709    -0.131     (0)  
   ZnCl4-2         3.389e-08   1.113e-08    -7.470    -7.953    -0.484     (0)  
   ZnOHCl          3.943e-09   3.943e-09    -8.404    -8.404     0.000     (0)  
   ZnOH+           1.661e-09   1.053e-09    -8.780    -8.978    -0.198     (0)  
   Zn(Nta)2-4      4.676e-10   5.717e-12    -9.330   -11.243    -1.913     (0)  
   ZnOH(Nta)-2     3.082e-10   1.025e-10    -9.511    -9.989    -0.478     (0)  
   Zn(OH)2         4.199e-14   4.199e-14   -13.377   -13.377     0.000     (0)  
   Zn(OH)3-        8.353e-20   5.296e-20   -19.078   -19.276    -0.198     (0)  
   Zn(OH)4-2       3.284e-27   5.305e-28   -26.484   -27.275    -0.792     (0)  

------------------------------Saturation indices-------------------------------

  Phase               SI** log IAP   log K(298 K,   1 atm)

  Halite           -3.49     -1.89    1.60  NaCl
  O2(g)           -49.49     33.60   83.09  O2
  Zincite          -6.91      4.42   11.33  ZnO
  Zn(OH)2          -7.78      4.42   12.20  Zn(OH)2
  Zn(OH)2(am)      -8.06      4.42   12.47  Zn(OH)2
  Zn(OH)2(beta)    -7.34      4.42   11.75  Zn(OH)2
  Zn(OH)2(epsilon)  -7.12      4.42   11.53  Zn(OH)2
  Zn(OH)2(gamma)   -7.32      4.42   11.73  Zn(OH)2
  Zn2(OH)3Cl      -11.70      3.49   15.19  Zn2(OH)3Cl
  Zn5(OH)8Cl2     -27.10     11.40   38.50  Zn5(OH)8Cl2
  ZnCl2           -13.32     -6.27    7.05  ZnCl2
  Znmetal         -38.17    -12.38   25.79  Zn
  ZnO(active)      -6.77      4.42   11.19  ZnO

**For a gas, SI = log10(fugacity). Fugacity = pressure * phi / 1 atm.
  For ideal gases, phi = 1.

------------------
End of simulation.
------------------

-------------------------------------
Reading input data for simulation 11.
-------------------------------------

	SOLUTION 9
	pH		4.6
	Cl		0.15		mol/kgw
	Na		0.15		mol/kgw
	Zn	0.200 	mmol/kgw
	Nta  0.200 	mmol/kgw
	END
-------------------------------------------
Beginning of initial solution calculations.
-------------------------------------------

Initial solution 9.	

-----------------------------Solution composition------------------------------

	Elements           Molality       Moles

	Cl                1.500e-01   1.500e-01
	Na                1.500e-01   1.500e-01
	Nta               2.000e-04   2.000e-04
	Zn                2.000e-04   2.000e-04

----------------------------Description of solution----------------------------

                                       pH  =   4.600    
                                       pe  =   4.000    
                        Activity of water  =   0.995
                 Ionic strength (mol/kgw)  =   1.505e-01
                       Mass of water (kg)  =   1.000e+00
                 Total alkalinity (eq/kg)  =   3.692e-05
                         Temperature (°C)  =  25.00
                  Electrical balance (eq)  =  -3.692e-05
 Percent error, 100*(Cat-|An|)/(Cat+|An|)  =  -0.01
                               Iterations  =   9
                                  Total H  = 1.110138e+02
                                  Total O  = 5.550683e+01

----------------------------Distribution of species----------------------------

                                               Log       Log       Log    mole V
   Species          Molality    Activity  Molality  Activity     Gamma   cm³/mol

   H+              3.308e-05   2.512e-05    -4.480    -4.600    -0.120      0.00
   OH-             5.465e-10   3.988e-10    -9.262    -9.399    -0.137     (0)  
   H2O             5.551e+01   9.949e-01     1.744    -0.002     0.000     18.07
Cl            1.500e-01
   Cl-             1.500e-01   1.139e-01    -0.824    -0.943    -0.120     (0)  
   ZnCl+           1.449e-05   1.071e-05    -4.839    -4.970    -0.131     (0)  
   ZnCl2           1.934e-06   1.934e-06    -5.714    -5.714     0.000     (0)  
   ZnCl3-          2.366e-07   1.749e-07    -6.626    -6.757    -0.131     (0)  
   ZnCl4-2         3.033e-08   9.963e-09    -7.518    -8.002    -0.483     (0)  
   ZnOHCl          5.593e-09   5.593e-09    -8.252    -8.252     0.000     (0)  
H(0)          8.629e-21
   H2              4.315e-21   4.467e-21   -20.365   -20.350     0.015     (0)  
Na            1.500e-01
   Na+             1.500e-01   1.139e-01    -0.824    -0.943    -0.120     (0)  
Nta           2.000e-04
   H(Nta)-2        1.286e-04   2.078e-05    -3.891    -4.682    -0.792     (0)  
   Zn(Nta)-        7.071e-05   5.370e-05    -4.151    -4.270    -0.120     (0)  
   H2(Nta)-        7.202e-07   4.567e-07    -6.143    -6.340    -0.198     (0)  
   H3(Nta)         1.147e-09   1.147e-09    -8.940    -8.940     0.000     (0)  
   Zn(Nta)2-4      8.474e-10   1.036e-11    -9.072   -10.984    -1.913     (0)  
   ZnOH(Nta)-2     6.221e-10   2.069e-10    -9.206    -9.684    -0.478     (0)  
   Nta-3           5.193e-10   4.361e-11    -9.285   -10.360    -1.076     (0)  
   H4(Nta)+        4.544e-13   2.881e-13   -12.343   -12.540    -0.198     (0)  
O(0)          0.000e+00
   O2              0.000e+00   0.000e+00   -51.615   -51.600     0.015     (0)  
Zn            2.000e-04
   Zn+2            1.126e-04   3.744e-05    -3.948    -4.427    -0.478     (0)  
   Zn(Nta)-        7.071e-05   5.370e-05    -4.151    -4.270    -0.120     (0)  
   ZnCl+           1.449e-05   1.071e-05    -4.839    -4.970    -0.131     (0)  
   ZnCl2           1.934e-06   1.934e-06    -5.714    -5.714     0.000     (0)  
   ZnCl3-          2.366e-07   1.749e-07    -6.626    -6.757    -0.131     (0)  
   ZnCl4-2         3.033e-08   9.963e-09    -7.518    -8.002    -0.483     (0)  
   ZnOHCl          5.593e-09   5.593e-09    -8.252    -8.252     0.000     (0)  
   ZnOH+           2.355e-09   1.493e-09    -8.628    -8.826    -0.198     (0)  
   Zn(Nta)2-4      8.474e-10   1.036e-11    -9.072   -10.984    -1.913     (0)  
   ZnOH(Nta)-2     6.221e-10   2.069e-10    -9.206    -9.684    -0.478     (0)  
   Zn(OH)2         9.439e-14   9.439e-14   -13.025   -13.025     0.000     (0)  
   Zn(OH)3-        2.976e-19   1.887e-19   -18.526   -18.724    -0.198     (0)  
   Zn(OH)4-2       1.854e-26   2.996e-27   -25.732   -26.524    -0.792     (0)  

------------------------------Saturation indices-------------------------------

  Phase               SI** log IAP   log K(298 K,   1 atm)

  Halite           -3.49     -1.89    1.60  NaCl
  O2(g)           -48.69     34.40   83.09  O2
  Zincite          -6.56      4.77   11.33  ZnO
  Zn(OH)2          -7.43      4.77   12.20  Zn(OH)2
  Zn(OH)2(am)      -7.71      4.77   12.47  Zn(OH)2
  Zn(OH)2(beta)    -6.99      4.77   11.75  Zn(OH)2
  Zn(OH)2(epsilon)  -6.77      4.77   11.53  Zn(OH)2
  Zn(OH)2(gamma)   -6.97      4.77   11.73  Zn(OH)2
  Zn2(OH)3Cl      -11.19      4.00   15.19  Zn2(OH)3Cl
  Zn5(OH)8Cl2     -25.74     12.76   38.50  Zn5(OH)8Cl2
  ZnCl2           -13.36     -6.31    7.05  ZnCl2
  Znmetal         -38.22    -12.43   25.79  Zn
  ZnO(active)      -6.42      4.77   11.19  ZnO

**For a gas, SI = log10(fugacity). Fugacity = pressure * phi / 1 atm.
  For ideal gases, phi = 1.

------------------
End of simulation.
------------------

-------------------------------------
Reading input data for simulation 12.
-------------------------------------

	SOLUTION 10
	pH		4.8
	Cl		0.15		mol/kgw
	Na		0.15		mol/kgw
	Zn	0.200 	mmol/kgw
	Nta  0.200 	mmol/kgw
	END
-------------------------------------------
Beginning of initial solution calculations.
-------------------------------------------

Initial solution 10.	

-----------------------------Solution composition------------------------------

	Elements           Molality       Moles

	Cl                1.500e-01   1.500e-01
	Na                1.500e-01   1.500e-01
	Nta               2.000e-04   2.000e-04
	Zn                2.000e-04   2.000e-04

----------------------------Description of solution----------------------------

                                       pH  =   4.800    
                                       pe  =   4.000    
                        Activity of water  =   0.995
                 Ionic strength (mol/kgw)  =   1.505e-01
                       Mass of water (kg)  =   1.000e+00
                 Total alkalinity (eq/kg)  =   6.528e-05
                         Temperature (°C)  =  25.00
                  Electrical balance (eq)  =  -6.528e-05
 Percent error, 100*(Cat-|An|)/(Cat+|An|)  =  -0.02
                               Iterations  =  10
                                  Total H  = 1.110138e+02
                                  Total O  = 5.550683e+01

----------------------------Distribution of species----------------------------

                                               Log       Log       Log    mole V
   Species          Molality    Activity  Molality  Activity     Gamma   cm³/mol

   H+              2.087e-05   1.585e-05    -4.680    -4.800    -0.120      0.00
   OH-             8.662e-10   6.321e-10    -9.062    -9.199    -0.137     (0)  
   H2O             5.551e+01   9.949e-01     1.744    -0.002     0.000     18.07
Cl            1.500e-01
   Cl-             1.500e-01   1.139e-01    -0.824    -0.943    -0.120     (0)  
   ZnCl+           1.271e-05   9.402e-06    -4.896    -5.027    -0.131     (0)  
   ZnCl2           1.697e-06   1.697e-06    -5.770    -5.770     0.000     (0)  
   ZnCl3-          2.076e-07   1.536e-07    -6.683    -6.814    -0.131     (0)  
   ZnCl4-2         2.662e-08   8.745e-09    -7.575    -8.058    -0.483     (0)  
   ZnOHCl          7.780e-09   7.780e-09    -8.109    -8.109     0.000     (0)  
H(0)          3.435e-21
   H2              1.718e-21   1.778e-21   -20.765   -20.750     0.015     (0)  
Na            1.500e-01
   Na+             1.500e-01   1.139e-01    -0.824    -0.943    -0.120     (0)  
Nta           2.000e-04
   H(Nta)-2        1.131e-04   1.828e-05    -3.947    -4.738    -0.791     (0)  
   Zn(Nta)-        8.653e-05   6.571e-05    -4.063    -4.182    -0.120     (0)  
   H2(Nta)-        3.998e-07   2.535e-07    -6.398    -6.596    -0.198     (0)  
   Zn(Nta)2-4      1.445e-09   1.768e-11    -8.840   -10.752    -1.912     (0)  
   ZnOH(Nta)-2     1.206e-09   4.013e-10    -8.918    -9.397    -0.478     (0)  
   Nta-3           7.239e-10   6.081e-11    -9.140   -10.216    -1.076     (0)  
   H3(Nta)         4.017e-10   4.017e-10    -9.396    -9.396     0.000     (0)  
   H4(Nta)+        1.004e-13   6.367e-14   -12.998   -13.196    -0.198     (0)  
O(0)          0.000e+00
   O2              0.000e+00   0.000e+00   -50.815   -50.800     0.015     (0)  
Zn            2.000e-04
   Zn+2            9.881e-05   3.286e-05    -4.005    -4.483    -0.478     (0)  
   Zn(Nta)-        8.653e-05   6.571e-05    -4.063    -4.182    -0.120     (0)  
   ZnCl+           1.271e-05   9.402e-06    -4.896    -5.027    -0.131     (0)  
   ZnCl2           1.697e-06   1.697e-06    -5.770    -5.770     0.000     (0)  
   ZnCl3-          2.076e-07   1.536e-07    -6.683    -6.814    -0.131     (0)  
   ZnCl4-2         2.662e-08   8.745e-09    -7.575    -8.058    -0.483     (0)  
   ZnOHCl          7.780e-09   7.780e-09    -8.109    -8.109     0.000     (0)  
   ZnOH+           3.276e-09   2.077e-09    -8.485    -8.683    -0.198     (0)  
   Zn(Nta)2-4      1.445e-09   1.768e-11    -8.840   -10.752    -1.912     (0)  
   ZnOH(Nta)-2     1.206e-09   4.013e-10    -8.918    -9.397    -0.478     (0)  
   Zn(OH)2         2.081e-13   2.081e-13   -12.682   -12.682     0.000     (0)  
   Zn(OH)3-        1.040e-18   6.592e-19   -17.983   -18.181    -0.198     (0)  
   Zn(OH)4-2       1.026e-25   1.659e-26   -24.989   -25.780    -0.791     (0)  

------------------------------Saturation indices-------------------------------

  Phase               SI** log IAP   log K(298 K,   1 atm)

  Halite           -3.49     -1.89    1.60  NaCl
  O2(g)           -47.89     35.20   83.09  O2
  Zincite          -6.22      5.11   11.33  ZnO
  Zn(OH)2          -7.09      5.11   12.20  Zn(OH)2
  Zn(OH)2(am)      -7.36      5.11   12.47  Zn(OH)2
  Zn(OH)2(beta)    -6.64      5.11   11.75  Zn(OH)2
  Zn(OH)2(epsilon)  -6.42      5.11   11.53  Zn(OH)2
  Zn(OH)2(gamma)   -6.62      5.11   11.73  Zn(OH)2
  Zn2(OH)3Cl      -10.71      4.48   15.19  Zn2(OH)3Cl
  Zn5(OH)8Cl2     -24.42     14.08   38.50  Zn5(OH)8Cl2
  ZnCl2           -13.42     -6.37    7.05  ZnCl2
  Znmetal         -38.27    -12.48   25.79  Zn
  ZnO(active)      -6.07      5.11   11.19  ZnO

**For a gas, SI = log10(fugacity). Fugacity = pressure * phi / 1 atm.
  For ideal gases, phi = 1.

------------------
End of simulation.
------------------

-------------------------------------
Reading input data for simulation 13.
-------------------------------------

	SOLUTION 11
	pH		5.0
	Cl		0.15		mol/kgw
	Na		0.15		mol/kgw
	Zn	0.200 	mmol/kgw
	Nta  0.200 	mmol/kgw
	END
-------------------------------------------
Beginning of initial solution calculations.
-------------------------------------------

Initial solution 11.	

-----------------------------Solution composition------------------------------

	Elements           Molality       Moles

	Cl                1.500e-01   1.500e-01
	Na                1.500e-01   1.500e-01
	Nta               2.000e-04   2.000e-04
	Zn                2.000e-04   2.000e-04

----------------------------Description of solution----------------------------

                                       pH  =   5.000    
                                       pe  =   4.000    
                        Activity of water  =   0.995
                 Ionic strength (mol/kgw)  =   1.504e-01
                       Mass of water (kg)  =   1.000e+00
                 Total alkalinity (eq/kg)  =   8.879e-05
                         Temperature (°C)  =  25.00
                  Electrical balance (eq)  =  -8.879e-05
 Percent error, 100*(Cat-|An|)/(Cat+|An|)  =  -0.03
                               Iterations  =  10
                                  Total H  = 1.110138e+02
                                  Total O  = 5.550683e+01

----------------------------Distribution of species----------------------------

                                               Log       Log       Log    mole V
   Species          Molality    Activity  Molality  Activity     Gamma   cm³/mol

   H+              1.317e-05   1.000e-05    -4.880    -5.000    -0.120      0.00
   OH-             1.373e-09   1.002e-09    -8.862    -8.999    -0.137     (0)  
   H2O             5.551e+01   9.949e-01     1.744    -0.002     0.000     18.07
Cl            1.500e-01
   Cl-             1.500e-01   1.139e-01    -0.824    -0.943    -0.120     (0)  
   ZnCl+           1.096e-05   8.108e-06    -4.960    -5.091    -0.131     (0)  
   ZnCl2           1.464e-06   1.464e-06    -5.835    -5.835     0.000     (0)  
   ZnCl3-          1.791e-07   1.324e-07    -6.747    -6.878    -0.131     (0)  
   ZnCl4-2         2.295e-08   7.543e-09    -7.639    -8.122    -0.483     (0)  
   ZnOHCl          1.063e-08   1.063e-08    -7.973    -7.973     0.000     (0)  
H(0)          1.368e-21
   H2              6.838e-22   7.079e-22   -21.165   -21.150     0.015     (0)  
Na            1.500e-01
   Na+             1.500e-01   1.139e-01    -0.824    -0.943    -0.120     (0)  
Nta           2.000e-04
   Zn(Nta)-        1.021e-04   7.757e-05    -3.991    -4.110    -0.120     (0)  
   H(Nta)-2        9.763e-05   1.579e-05    -4.010    -4.802    -0.791     (0)  
   H2(Nta)-        2.178e-07   1.381e-07    -6.662    -6.860    -0.198     (0)  
   Zn(Nta)2-4      2.335e-09   2.858e-11    -8.632   -10.544    -1.912     (0)  
   ZnOH(Nta)-2     2.257e-09   7.508e-10    -8.646    -9.125    -0.478     (0)  
   Nta-3           9.907e-10   8.324e-11    -9.004   -10.080    -1.076     (0)  
   H3(Nta)         1.381e-10   1.381e-10    -9.860    -9.860     0.000     (0)  
   H4(Nta)+        2.178e-14   1.381e-14   -13.662   -13.860    -0.198     (0)  
O(0)          0.000e+00
   O2              0.000e+00   0.000e+00   -50.015   -50.000     0.015     (0)  
Zn            2.000e-04
   Zn(Nta)-        1.021e-04   7.757e-05    -3.991    -4.110    -0.120     (0)  
   Zn+2            8.520e-05   2.834e-05    -4.070    -4.548    -0.478     (0)  
   ZnCl+           1.096e-05   8.108e-06    -4.960    -5.091    -0.131     (0)  
   ZnCl2           1.464e-06   1.464e-06    -5.835    -5.835     0.000     (0)  
   ZnCl3-          1.791e-07   1.324e-07    -6.747    -6.878    -0.131     (0)  
   ZnCl4-2         2.295e-08   7.543e-09    -7.639    -8.122    -0.483     (0)  
   ZnOHCl          1.063e-08   1.063e-08    -7.973    -7.973     0.000     (0)  
   ZnOH+           4.477e-09   2.839e-09    -8.349    -8.547    -0.198     (0)  
   Zn(Nta)2-4      2.335e-09   2.858e-11    -8.632   -10.544    -1.912     (0)  
   ZnOH(Nta)-2     2.257e-09   7.508e-10    -8.646    -9.125    -0.478     (0)  
   Zn(OH)2         4.508e-13   4.508e-13   -12.346   -12.346     0.000     (0)  
   Zn(OH)3-        3.569e-18   2.263e-18   -17.447   -17.645    -0.198     (0)  
   Zn(OH)4-2       5.581e-25   9.026e-26   -24.253   -25.044    -0.791     (0)  

------------------------------Saturation indices-------------------------------

  Phase               SI** log IAP   log K(298 K,   1 atm)

  Halite           -3.49     -1.89    1.60  NaCl
  O2(g)           -47.09     36.00   83.09  O2
  Zincite          -5.88      5.45   11.33  ZnO
  Zn(OH)2          -6.75      5.45   12.20  Zn(OH)2
  Zn(OH)2(am)      -7.03      5.45   12.47  Zn(OH)2
  Zn(OH)2(beta)    -6.31      5.45   11.75  Zn(OH)2
  Zn(OH)2(epsilon)  -6.09      5.45   11.53  Zn(OH)2
  Zn(OH)2(gamma)   -6.29      5.45   11.73  Zn(OH)2
  Zn2(OH)3Cl      -10.24      4.95   15.19  Zn2(OH)3Cl
  Zn5(OH)8Cl2     -23.14     15.36   38.50  Zn5(OH)8Cl2
  ZnCl2           -13.48     -6.43    7.05  ZnCl2
  Znmetal         -38.34    -12.55   25.79  Zn
  ZnO(active)      -5.74      5.45   11.19  ZnO

**For a gas, SI = log10(fugacity). Fugacity = pressure * phi / 1 atm.
  For ideal gases, phi = 1.

------------------
End of simulation.
------------------

-------------------------------------
Reading input data for simulation 14.
-------------------------------------

	SOLUTION 12
	pH		5.2
	Cl		0.15		mol/kgw
	Na		0.15		mol/kgw
	Zn	0.200 	mmol/kgw
	Nta  0.200 	mmol/kgw
	END
-------------------------------------------
Beginning of initial solution calculations.
-------------------------------------------

Initial solution 12.	

-----------------------------Solution composition------------------------------

	Elements           Molality       Moles

	Cl                1.500e-01   1.500e-01
	Na                1.500e-01   1.500e-01
	Nta               2.000e-04   2.000e-04
	Zn                2.000e-04   2.000e-04

----------------------------Description of solution----------------------------

                                       pH  =   5.200    
                                       pe  =   4.000    
                        Activity of water  =   0.995
                 Ionic strength (mol/kgw)  =   1.504e-01
                       Mass of water (kg)  =   1.000e+00
                 Total alkalinity (eq/kg)  =   1.085e-04
                         Temperature (°C)  =  25.00
                  Electrical balance (eq)  =  -1.085e-04
 Percent error, 100*(Cat-|An|)/(Cat+|An|)  =  -0.04
                               Iterations  =  10
                                  Total H  = 1.110138e+02
                                  Total O  = 5.550683e+01

----------------------------Distribution of species----------------------------

                                               Log       Log       Log    mole V
   Species          Molality    Activity  Molality  Activity     Gamma   cm³/mol

   H+              8.308e-06   6.310e-06    -5.080    -5.200    -0.120      0.00
   OH-             2.176e-09   1.588e-09    -8.662    -8.799    -0.137     (0)  
   H2O             5.551e+01   9.949e-01     1.744    -0.002     0.000     18.07
Cl            1.500e-01
   Cl-             1.500e-01   1.139e-01    -0.824    -0.943    -0.120     (0)  
   ZnCl+           9.311e-06   6.886e-06    -5.031    -5.162    -0.131     (0)  
   ZnCl2           1.243e-06   1.243e-06    -5.905    -5.905     0.000     (0)  
   ZnCl3-          1.521e-07   1.125e-07    -6.818    -6.949    -0.131     (0)  
   ZnCl4-2         1.950e-08   6.407e-09    -7.710    -8.193    -0.483     (0)  
   ZnOHCl          1.431e-08   1.431e-08    -7.844    -7.844     0.000     (0)  
H(0)          5.445e-22
   H2              2.722e-22   2.818e-22   -21.565   -21.550     0.015     (0)  
Na            1.500e-01
   Na+             1.500e-01   1.139e-01    -0.824    -0.943    -0.120     (0)  
Nta           2.000e-04
   Zn(Nta)-        1.169e-04   8.877e-05    -3.932    -4.052    -0.120     (0)  
   H(Nta)-2        8.298e-05   1.342e-05    -4.081    -4.872    -0.791     (0)  
   H2(Nta)-        1.168e-07   7.411e-08    -6.932    -7.130    -0.198     (0)  
   ZnOH(Nta)-2     4.093e-09   1.362e-09    -8.388    -8.866    -0.478     (0)  
   Zn(Nta)2-4      3.599e-09   4.407e-11    -8.444   -10.356    -1.912     (0)  
   Nta-3           1.335e-09   1.122e-10    -8.875    -9.950    -1.076     (0)  
   H3(Nta)         4.676e-11   4.676e-11   -10.330   -10.330     0.000     (0)  
   H4(Nta)+        4.652e-15   2.950e-15   -14.332   -14.530    -0.198     (0)  
O(0)          0.000e+00
   O2              0.000e+00   0.000e+00   -49.215   -49.200     0.015     (0)  
Zn            2.000e-04
   Zn(Nta)-        1.169e-04   8.877e-05    -3.932    -4.052    -0.120     (0)  
   Zn+2            7.235e-05   2.407e-05    -4.141    -4.619    -0.478     (0)  
   ZnCl+           9.311e-06   6.886e-06    -5.031    -5.162    -0.131     (0)  
   ZnCl2           1.243e-06   1.243e-06    -5.905    -5.905     0.000     (0)  
   ZnCl3-          1.521e-07   1.125e-07    -6.818    -6.949    -0.131     (0)  
   ZnCl4-2         1.950e-08   6.407e-09    -7.710    -8.193    -0.483     (0)  
   ZnOHCl          1.431e-08   1.431e-08    -7.844    -7.844     0.000     (0)  
   ZnOH+           6.025e-09   3.821e-09    -8.220    -8.418    -0.198     (0)  
   ZnOH(Nta)-2     4.093e-09   1.362e-09    -8.388    -8.866    -0.478     (0)  
   Zn(Nta)2-4      3.599e-09   4.407e-11    -8.444   -10.356    -1.912     (0)  
   Zn(OH)2         9.616e-13   9.616e-13   -12.017   -12.017     0.000     (0)  
   Zn(OH)3-        1.207e-17   7.652e-18   -16.918   -17.116    -0.198     (0)  
   Zn(OH)4-2       2.990e-24   4.837e-25   -23.524   -24.315    -0.791     (0)  

------------------------------Saturation indices-------------------------------

  Phase               SI** log IAP   log K(298 K,   1 atm)

  Halite           -3.49     -1.89    1.60  NaCl
  O2(g)           -46.29     36.80   83.09  O2
  Zincite          -5.55      5.78   11.33  ZnO
  Zn(OH)2          -6.42      5.78   12.20  Zn(OH)2
  Zn(OH)2(am)      -6.70      5.78   12.47  Zn(OH)2
  Zn(OH)2(beta)    -5.98      5.78   11.75  Zn(OH)2
  Zn(OH)2(epsilon)  -5.76      5.78   11.53  Zn(OH)2
  Zn(OH)2(gamma)   -5.96      5.78   11.73  Zn(OH)2
  Zn2(OH)3Cl       -9.78      5.41   15.19  Zn2(OH)3Cl
  Zn5(OH)8Cl2     -21.90     16.60   38.50  Zn5(OH)8Cl2
  ZnCl2           -13.56     -6.51    7.05  ZnCl2
  Znmetal         -38.41    -12.62   25.79  Zn
  ZnO(active)      -5.41      5.78   11.19  ZnO

**For a gas, SI = log10(fugacity). Fugacity = pressure * phi / 1 atm.
  For ideal gases, phi = 1.

------------------
End of simulation.
------------------

-------------------------------------
Reading input data for simulation 15.
-------------------------------------

	SOLUTION 13
	pH		5.4
	Cl		0.15		mol/kgw
	Na		0.15		mol/kgw
	Zn	0.200 	mmol/kgw
	Nta  0.200 	mmol/kgw
	END
-------------------------------------------
Beginning of initial solution calculations.
-------------------------------------------

Initial solution 13.	

-----------------------------Solution composition------------------------------

	Elements           Molality       Moles

	Cl                1.500e-01   1.500e-01
	Na                1.500e-01   1.500e-01
	Nta               2.000e-04   2.000e-04
	Zn                2.000e-04   2.000e-04

----------------------------Description of solution----------------------------

                                       pH  =   5.400    
                                       pe  =   4.000    
                        Activity of water  =   0.995
                 Ionic strength (mol/kgw)  =   1.503e-01
                       Mass of water (kg)  =   1.000e+00
                 Total alkalinity (eq/kg)  =   1.251e-04
                         Temperature (°C)  =  25.00
                  Electrical balance (eq)  =  -1.251e-04
 Percent error, 100*(Cat-|An|)/(Cat+|An|)  =  -0.04
                               Iterations  =  10
                                  Total H  = 1.110137e+02
                                  Total O  = 5.550683e+01

----------------------------Distribution of species----------------------------

                                               Log       Log       Log    mole V
   Species          Molality    Activity  Molality  Activity     Gamma   cm³/mol

   H+              5.242e-06   3.981e-06    -5.281    -5.400    -0.119      0.00
   OH-             3.448e-09   2.516e-09    -8.462    -8.599    -0.137     (0)  
   H2O             5.551e+01   9.949e-01     1.744    -0.002     0.000     18.07
Cl            1.500e-01
   Cl-             1.500e-01   1.139e-01    -0.824    -0.943    -0.119     (0)  
   ZnCl+           7.806e-06   5.773e-06    -5.108    -5.239    -0.131     (0)  
   ZnCl2           1.042e-06   1.042e-06    -5.982    -5.982     0.000     (0)  
   ZnCl3-          1.275e-07   9.431e-08    -6.894    -7.025    -0.131     (0)  
   ZnOHCl          1.902e-08   1.902e-08    -7.721    -7.721     0.000     (0)  
   ZnCl4-2         1.634e-08   5.372e-09    -7.787    -8.270    -0.483     (0)  
H(0)          2.168e-22
   H2              1.084e-22   1.122e-22   -21.965   -21.950     0.015     (0)  
Na            1.500e-01
   Na+             1.500e-01   1.139e-01    -0.824    -0.943    -0.119     (0)  
Nta           2.000e-04
   Zn(Nta)-        1.303e-04   9.897e-05    -3.885    -4.004    -0.119     (0)  
   H(Nta)-2        6.960e-05   1.126e-05    -4.157    -4.948    -0.791     (0)  
   H2(Nta)-        6.186e-08   3.923e-08    -7.209    -7.406    -0.198     (0)  
   ZnOH(Nta)-2     7.232e-09   2.406e-09    -8.141    -8.619    -0.478     (0)  
   Zn(Nta)2-4      5.334e-09   6.533e-11    -8.273   -10.185    -1.912     (0)  
   Nta-3           1.775e-09   1.492e-10    -8.751    -9.826    -1.075     (0)  
   H3(Nta)         1.562e-11   1.562e-11   -10.806   -10.806     0.000     (0)  
   H4(Nta)+        9.804e-16   6.218e-16   -15.009   -15.206    -0.198     (0)  
O(0)          0.000e+00
   O2              0.000e+00   0.000e+00   -48.415   -48.400     0.015     (0)  
Zn            2.000e-04
   Zn(Nta)-        1.303e-04   9.897e-05    -3.885    -4.004    -0.119     (0)  
   Zn+2            6.065e-05   2.018e-05    -4.217    -4.695    -0.478     (0)  
   ZnCl+           7.806e-06   5.773e-06    -5.108    -5.239    -0.131     (0)  
   ZnCl2           1.042e-06   1.042e-06    -5.982    -5.982     0.000     (0)  
   ZnCl3-          1.275e-07   9.431e-08    -6.894    -7.025    -0.131     (0)  
   ZnOHCl          1.902e-08   1.902e-08    -7.721    -7.721     0.000     (0)  
   ZnCl4-2         1.634e-08   5.372e-09    -7.787    -8.270    -0.483     (0)  
   ZnOH+           8.005e-09   5.077e-09    -8.097    -8.294    -0.198     (0)  
   ZnOH(Nta)-2     7.232e-09   2.406e-09    -8.141    -8.619    -0.478     (0)  
   Zn(Nta)2-4      5.334e-09   6.533e-11    -8.273   -10.185    -1.912     (0)  
   Zn(OH)2         2.025e-12   2.025e-12   -11.694   -11.694     0.000     (0)  
   Zn(OH)3-        4.027e-17   2.554e-17   -16.395   -16.593    -0.198     (0)  
   Zn(OH)4-2       1.581e-23   2.558e-24   -22.801   -23.592    -0.791     (0)  

------------------------------Saturation indices-------------------------------

  Phase               SI** log IAP   log K(298 K,   1 atm)

  Halite           -3.49     -1.89    1.60  NaCl
  O2(g)           -45.49     37.60   83.09  O2
  Zincite          -5.23      6.10   11.33  ZnO
  Zn(OH)2          -6.10      6.10   12.20  Zn(OH)2
  Zn(OH)2(am)      -6.37      6.10   12.47  Zn(OH)2
  Zn(OH)2(beta)    -5.65      6.10   11.75  Zn(OH)2
  Zn(OH)2(epsilon)  -5.43      6.10   11.53  Zn(OH)2
  Zn(OH)2(gamma)   -5.63      6.10   11.73  Zn(OH)2
  Zn2(OH)3Cl       -9.33      5.86   15.19  Zn2(OH)3Cl
  Zn5(OH)8Cl2     -20.68     17.82   38.50  Zn5(OH)8Cl2
  ZnCl2           -13.63     -6.58    7.05  ZnCl2
  Znmetal         -38.48    -12.70   25.79  Zn
  ZnO(active)      -5.09      6.10   11.19  ZnO

**For a gas, SI = log10(fugacity). Fugacity = pressure * phi / 1 atm.
  For ideal gases, phi = 1.

------------------
End of simulation.
------------------

-------------------------------------
Reading input data for simulation 16.
-------------------------------------

	SOLUTION 14
	pH		5.6
	Cl		0.15		mol/kgw
	Na		0.15		mol/kgw
	Zn	0.200 	mmol/kgw
	Nta  0.200 	mmol/kgw
	END
-------------------------------------------
Beginning of initial solution calculations.
-------------------------------------------

Initial solution 14.	

-----------------------------Solution composition------------------------------

	Elements           Molality       Moles

	Cl                1.500e-01   1.500e-01
	Na                1.500e-01   1.500e-01
	Nta               2.000e-04   2.000e-04
	Zn                2.000e-04   2.000e-04

----------------------------Description of solution----------------------------

                                       pH  =   5.600    
                                       pe  =   4.000    
                        Activity of water  =   0.995
                 Ionic strength (mol/kgw)  =   1.503e-01
                       Mass of water (kg)  =   1.000e+00
                 Total alkalinity (eq/kg)  =   1.389e-04
                         Temperature (°C)  =  25.00
                  Electrical balance (eq)  =  -1.389e-04
 Percent error, 100*(Cat-|An|)/(Cat+|An|)  =  -0.05
                               Iterations  =  10
                                  Total H  = 1.110137e+02
                                  Total O  = 5.550683e+01

----------------------------Distribution of species----------------------------

                                               Log       Log       Log    mole V
   Species          Molality    Activity  Molality  Activity     Gamma   cm³/mol

   H+              3.307e-06   2.512e-06    -5.481    -5.600    -0.119      0.00
   OH-             5.464e-09   3.988e-09    -8.262    -8.399    -0.137     (0)  
   H2O             5.551e+01   9.949e-01     1.744    -0.002     0.000     18.07
Cl            1.500e-01
   Cl-             1.500e-01   1.139e-01    -0.824    -0.943    -0.119     (0)  
   ZnCl+           6.475e-06   4.789e-06    -5.189    -5.320    -0.131     (0)  
   ZnCl2           8.646e-07   8.646e-07    -6.063    -6.063     0.000     (0)  
   ZnCl3-          1.058e-07   7.823e-08    -6.976    -7.107    -0.131     (0)  
   ZnOHCl          2.500e-08   2.500e-08    -7.602    -7.602     0.000     (0)  
   ZnCl4-2         1.356e-08   4.456e-09    -7.868    -8.351    -0.483     (0)  
H(0)          8.630e-23
   H2              4.315e-23   4.467e-23   -22.365   -22.350     0.015     (0)  
Na            1.500e-01
   Na+             1.500e-01   1.139e-01    -0.824    -0.943    -0.119     (0)  
Nta           2.000e-04
   Zn(Nta)-        1.422e-04   1.080e-04    -3.847    -3.967    -0.119     (0)  
   H(Nta)-2        5.776e-05   9.348e-06    -4.238    -5.029    -0.791     (0)  
   H2(Nta)-        3.239e-08   2.055e-08    -7.490    -7.687    -0.198     (0)  
   ZnOH(Nta)-2     1.251e-08   4.160e-09    -7.903    -8.381    -0.478     (0)  
   Zn(Nta)2-4      7.654e-09   9.377e-11    -8.116   -10.028    -1.912     (0)  
   Nta-3           2.334e-09   1.962e-10    -8.632    -9.707    -1.075     (0)  
   H3(Nta)         5.161e-12   5.161e-12   -11.287   -11.287     0.000     (0)  
   H4(Nta)+        2.044e-16   1.296e-16   -15.690   -15.887    -0.198     (0)  
O(0)          0.000e+00
   O2              0.000e+00   0.000e+00   -47.615   -47.600     0.015     (0)  
Zn            2.000e-04
   Zn(Nta)-        1.422e-04   1.080e-04    -3.847    -3.967    -0.119     (0)  
   Zn+2            5.030e-05   1.674e-05    -4.298    -4.776    -0.478     (0)  
   ZnCl+           6.475e-06   4.789e-06    -5.189    -5.320    -0.131     (0)  
   ZnCl2           8.646e-07   8.646e-07    -6.063    -6.063     0.000     (0)  
   ZnCl3-          1.058e-07   7.823e-08    -6.976    -7.107    -0.131     (0)  
   ZnOHCl          2.500e-08   2.500e-08    -7.602    -7.602     0.000     (0)  
   ZnCl4-2         1.356e-08   4.456e-09    -7.868    -8.351    -0.483     (0)  
   ZnOH(Nta)-2     1.251e-08   4.160e-09    -7.903    -8.381    -0.478     (0)  
   ZnOH+           1.052e-08   6.675e-09    -7.978    -8.176    -0.198     (0)  
   Zn(Nta)2-4      7.654e-09   9.377e-11    -8.116   -10.028    -1.912     (0)  
   Zn(OH)2         4.219e-12   4.219e-12   -11.375   -11.375     0.000     (0)  
   Zn(OH)3-        1.330e-16   8.433e-17   -15.876   -16.074    -0.198     (0)  
   Zn(OH)4-2       8.273e-23   1.339e-23   -22.082   -22.873    -0.791     (0)  

------------------------------Saturation indices-------------------------------

  Phase               SI** log IAP   log K(298 K,   1 atm)

  Halite           -3.49     -1.89    1.60  NaCl
  O2(g)           -44.69     38.40   83.09  O2
  Zincite          -4.91      6.42   11.33  ZnO
  Zn(OH)2          -5.78      6.42   12.20  Zn(OH)2
  Zn(OH)2(am)      -6.05      6.42   12.47  Zn(OH)2
  Zn(OH)2(beta)    -5.33      6.42   11.75  Zn(OH)2
  Zn(OH)2(epsilon)  -5.11      6.42   11.53  Zn(OH)2
  Zn(OH)2(gamma)   -5.31      6.42   11.73  Zn(OH)2
  Zn2(OH)3Cl       -8.89      6.30   15.19  Zn2(OH)3Cl
  Zn5(OH)8Cl2     -19.49     19.01   38.50  Zn5(OH)8Cl2
  ZnCl2           -13.71     -6.66    7.05  ZnCl2
  Znmetal         -38.56    -12.78   25.79  Zn
  ZnO(active)      -4.77      6.42   11.19  ZnO

**For a gas, SI = log10(fugacity). Fugacity = pressure * phi / 1 atm.
  For ideal gases, phi = 1.

------------------
End of simulation.
------------------

-------------------------------------
Reading input data for simulation 17.
-------------------------------------

	SOLUTION 15
	pH		5.8
	Cl		0.15		mol/kgw
	Na		0.15		mol/kgw
	Zn	0.200 	mmol/kgw
	Nta  0.200 	mmol/kgw
	END
-------------------------------------------
Beginning of initial solution calculations.
-------------------------------------------

Initial solution 15.	

-----------------------------Solution composition------------------------------

	Elements           Molality       Moles

	Cl                1.500e-01   1.500e-01
	Na                1.500e-01   1.500e-01
	Nta               2.000e-04   2.000e-04
	Zn                2.000e-04   2.000e-04

----------------------------Description of solution----------------------------

                                       pH  =   5.800    
                                       pe  =   4.000    
                        Activity of water  =   0.995
                 Ionic strength (mol/kgw)  =   1.503e-01
                       Mass of water (kg)  =   1.000e+00
                 Total alkalinity (eq/kg)  =   1.504e-04
                         Temperature (°C)  =  25.00
                  Electrical balance (eq)  =  -1.504e-04
 Percent error, 100*(Cat-|An|)/(Cat+|An|)  =  -0.05
                               Iterations  =  10
                                  Total H  = 1.110137e+02
                                  Total O  = 5.550683e+01

----------------------------Distribution of species----------------------------

                                               Log       Log       Log    mole V
   Species          Molality    Activity  Molality  Activity     Gamma   cm³/mol

   H+              2.087e-06   1.585e-06    -5.681    -5.800    -0.119      0.00
   OH-             8.660e-09   6.321e-09    -8.062    -8.199    -0.137     (0)  
   H2O             5.551e+01   9.949e-01     1.744    -0.002     0.000     18.07
Cl            1.500e-01
   Cl-             1.500e-01   1.139e-01    -0.824    -0.943    -0.119     (0)  
   ZnCl+           5.324e-06   3.937e-06    -5.274    -5.405    -0.131     (0)  
   ZnCl2           7.109e-07   7.109e-07    -6.148    -6.148     0.000     (0)  
   ZnCl3-          8.697e-08   6.433e-08    -7.061    -7.192    -0.131     (0)  
   ZnOHCl          3.258e-08   3.258e-08    -7.487    -7.487     0.000     (0)  
   ZnCl4-2         1.115e-08   3.664e-09    -7.953    -8.436    -0.483     (0)  
H(0)          3.436e-23
   H2              1.718e-23   1.778e-23   -22.765   -22.750     0.015     (0)  
Na            1.500e-01
   Na+             1.500e-01   1.139e-01    -0.824    -0.943    -0.119     (0)  
Nta           2.000e-04
   Zn(Nta)-        1.524e-04   1.158e-04    -3.817    -3.936    -0.119     (0)  
[...]
   ZnOHCl          9.137e-07   9.137e-07    -6.039    -6.039     0.000     (0)  
   ZnCl+           3.750e-08   2.774e-08    -7.426    -7.557    -0.131     (0)  
   ZnCl2           5.008e-09   5.008e-09    -8.300    -8.300     0.000     (0)  
   ZnCl3-          6.127e-10   4.532e-10    -9.213    -9.344    -0.131     (0)  
   ZnCl4-2         7.853e-11   2.581e-11   -10.105   -10.588    -0.483     (0)  
H(0)          2.168e-30
   H2              1.084e-30   1.122e-30   -29.965   -29.950     0.015     (0)  
Na            1.500e-01
   Na+             1.500e-01   1.139e-01    -0.824    -0.943    -0.119     (0)  
Nta           2.000e-04
   Zn(Nta)-        1.262e-04   9.581e-05    -3.899    -4.019    -0.119     (0)  
   ZnOH(Nta)-2     7.000e-05   2.329e-05    -4.155    -4.633    -0.478     (0)  
   H(Nta)-2        1.402e-06   2.270e-07    -5.853    -6.644    -0.791     (0)  
   Zn(Nta)2-4      1.040e-06   1.275e-08    -5.983    -7.895    -1.912     (0)  
   Nta-3           3.575e-07   3.006e-08    -6.447    -7.522    -1.075     (0)  
   H2(Nta)-        1.246e-13   7.907e-14   -12.904   -13.102    -0.198     (0)  
   H3(Nta)         3.148e-21   3.148e-21   -20.502   -20.502     0.000     (0)  
   H4(Nta)+        1.976e-29   1.253e-29   -28.704   -28.902    -0.198     (0)  
O(0)          7.700e-33
   O2              3.850e-33   3.985e-33   -32.415   -32.400     0.015     (0)  
Zn            2.000e-04
   Zn(Nta)-        1.262e-04   9.581e-05    -3.899    -4.019    -0.119     (0)  
   ZnOH(Nta)-2     7.000e-05   2.329e-05    -4.155    -4.633    -0.478     (0)  
   Zn(Nta)2-4      1.040e-06   1.275e-08    -5.983    -7.895    -1.912     (0)  
   Zn(OH)2         9.727e-07   9.727e-07    -6.012    -6.012     0.000     (0)  
   ZnOHCl          9.137e-07   9.137e-07    -6.039    -6.039     0.000     (0)  
   ZnOH+           3.845e-07   2.439e-07    -6.415    -6.613    -0.198     (0)  
   Zn+2            2.913e-07   9.692e-08    -6.536    -7.014    -0.478     (0)  
   Zn(OH)3-        1.934e-07   1.227e-07    -6.714    -6.911    -0.198     (0)  
   ZnCl+           3.750e-08   2.774e-08    -7.426    -7.557    -0.131     (0)  
   ZnCl2           5.008e-09   5.008e-09    -8.300    -8.300     0.000     (0)  
   Zn(OH)4-2       7.591e-10   1.229e-10    -9.120    -9.910    -0.791     (0)  
   ZnCl3-          6.127e-10   4.532e-10    -9.213    -9.344    -0.131     (0)  
   ZnCl4-2         7.853e-11   2.581e-11   -10.105   -10.588    -0.483     (0)  

------------------------------Saturation indices-------------------------------

  Phase               SI** log IAP   log K(298 K,   1 atm)

  Halite           -3.49     -1.89    1.60  NaCl
  O2(g)           -29.49     53.60   83.09  O2
  Zincite           0.45     11.78   11.33  ZnO
  Zn(OH)2          -0.42     11.78   12.20  Zn(OH)2
  Zn(OH)2(am)      -0.69     11.78   12.47  Zn(OH)2
  Zn(OH)2(beta)     0.03     11.78   11.75  Zn(OH)2
  Zn(OH)2(epsilon)   0.25     11.78   11.53  Zn(OH)2
  Zn(OH)2(gamma)    0.05     11.78   11.73  Zn(OH)2
  Zn2(OH)3Cl       -1.97     13.22   15.19  Zn2(OH)3Cl
  Zn5(OH)8Cl2      -0.27     38.23   38.50  Zn5(OH)8Cl2
  ZnCl2           -15.95     -8.90    7.05  ZnCl2
  Znmetal         -40.80    -15.01   25.79  Zn
  ZnO(active)       0.60     11.78   11.19  ZnO

**For a gas, SI = log10(fugacity). Fugacity = pressure * phi / 1 atm.
  For ideal gases, phi = 1.

------------------
End of simulation.
------------------

-------------------------------------
Reading input data for simulation 36.
-------------------------------------

	SOLUTION 34
	pH		9.6
	Cl		0.15		mol/kgw
	Na		0.15		mol/kgw
	Zn	0.200 	mmol/kgw
	Nta  0.200 	mmol/kgw
	END
-------------------------------------------
Beginning of initial solution calculations.
-------------------------------------------

Initial solution 34.	

-----------------------------Solution composition------------------------------

	Elements           Molality       Moles

	Cl                1.500e-01   1.500e-01
	Na                1.500e-01   1.500e-01
	Nta               2.000e-04   2.000e-04
	Zn                2.000e-04   2.000e-04

----------------------------Description of solution----------------------------

                                       pH  =   9.600    
                                       pe  =   4.000    
                        Activity of water  =   0.995
                 Ionic strength (mol/kgw)  =   1.503e-01
                       Mass of water (kg)  =   1.000e+00
                 Total alkalinity (eq/kg)  =   3.500e-04
                         Temperature (°C)  =  25.00
                  Electrical balance (eq)  =  -3.500e-04
 Percent error, 100*(Cat-|An|)/(Cat+|An|)  =  -0.12
                               Iterations  =   9
                                  Total H  = 1.110138e+02
                                  Total O  = 5.550698e+01

----------------------------Distribution of species----------------------------

                                               Log       Log       Log    mole V
   Species          Molality    Activity  Molality  Activity     Gamma   cm³/mol

   OH-             5.464e-05   3.988e-05    -4.262    -4.399    -0.137     (0)  
   H+              3.307e-10   2.512e-10    -9.481    -9.600    -0.119      0.00
   H2O             5.551e+01   9.949e-01     1.744    -0.002     0.000     18.07
Cl            1.500e-01
   Cl-             1.500e-01   1.139e-01    -0.824    -0.943    -0.119     (0)  
   ZnOHCl          8.049e-07   8.049e-07    -6.094    -6.094     0.000     (0)  
   ZnCl+           2.084e-08   1.541e-08    -7.681    -7.812    -0.131     (0)  
   ZnCl2           2.783e-09   2.783e-09    -8.555    -8.555     0.000     (0)  
   ZnCl3-          3.405e-10   2.519e-10    -9.468    -9.599    -0.131     (0)  
   ZnCl4-2         4.365e-11   1.435e-11   -10.360   -10.843    -0.483     (0)  
H(0)          8.630e-31
   H2              4.315e-31   4.467e-31   -30.365   -30.350     0.015     (0)  
Na            1.500e-01
   Na+             1.500e-01   1.139e-01    -0.824    -0.943    -0.119     (0)  
Nta           2.000e-04
   Zn(Nta)-        1.041e-04   7.904e-05    -3.983    -4.102    -0.119     (0)  
   ZnOH(Nta)-2     9.153e-05   3.045e-05    -4.038    -4.516    -0.478     (0)  
   H(Nta)-2        1.313e-06   2.126e-07    -5.882    -6.672    -0.791     (0)  
   Zn(Nta)2-4      1.274e-06   1.561e-08    -5.895    -7.807    -1.912     (0)  
   Nta-3           5.308e-07   4.462e-08    -6.275    -7.350    -1.075     (0)  
   H2(Nta)-        7.366e-14   4.672e-14   -13.133   -13.330    -0.198     (0)  
   H3(Nta)         1.174e-21   1.174e-21   -20.930   -20.930     0.000     (0)  
   H4(Nta)+        4.648e-30   2.948e-30   -29.333   -29.530    -0.198     (0)  
O(0)          4.858e-32
   O2              2.429e-32   2.515e-32   -31.615   -31.600     0.015     (0)  
Zn            2.000e-04
   Zn(Nta)-        1.041e-04   7.904e-05    -3.983    -4.102    -0.119     (0)  
   ZnOH(Nta)-2     9.153e-05   3.045e-05    -4.038    -4.516    -0.478     (0)  
   Zn(OH)2         1.358e-06   1.358e-06    -5.867    -5.867     0.000     (0)  
   Zn(Nta)2-4      1.274e-06   1.561e-08    -5.895    -7.807    -1.912     (0)  
   ZnOHCl          8.049e-07   8.049e-07    -6.094    -6.094     0.000     (0)  
   Zn(OH)3-        4.279e-07   2.714e-07    -6.369    -6.566    -0.198     (0)  
   ZnOH+           3.387e-07   2.148e-07    -6.470    -6.668    -0.198     (0)  
   Zn+2            1.619e-07   5.387e-08    -6.791    -7.269    -0.478     (0)  
   ZnCl+           2.084e-08   1.541e-08    -7.681    -7.812    -0.131     (0)  
   ZnCl2           2.783e-09   2.783e-09    -8.555    -8.555     0.000     (0)  
   Zn(OH)4-2       2.663e-09   4.310e-10    -8.575    -9.366    -0.791     (0)  
   ZnCl3-          3.405e-10   2.519e-10    -9.468    -9.599    -0.131     (0)  
   ZnCl4-2         4.365e-11   1.435e-11   -10.360   -10.843    -0.483     (0)  

------------------------------Saturation indices-------------------------------

  Phase               SI** log IAP   log K(298 K,   1 atm)

  Halite           -3.49     -1.89    1.60  NaCl
  O2(g)           -28.69     54.40   83.09  O2
  Zincite           0.60     11.93   11.33  ZnO
  Zn(OH)2          -0.27     11.93   12.20  Zn(OH)2
  Zn(OH)2(am)      -0.55     11.93   12.47  Zn(OH)2
  Zn(OH)2(beta)     0.17     11.93   11.75  Zn(OH)2
  Zn(OH)2(epsilon)   0.39     11.93   11.53  Zn(OH)2
  Zn(OH)2(gamma)    0.19     11.93   11.73  Zn(OH)2
  Zn2(OH)3Cl       -1.88     13.31   15.19  Zn2(OH)3Cl
  Zn5(OH)8Cl2       0.05     38.55   38.50  Zn5(OH)8Cl2
  ZnCl2           -16.21     -9.16    7.05  ZnCl2
  Znmetal         -41.06    -15.27   25.79  Zn
  ZnO(active)       0.74     11.93   11.19  ZnO

**For a gas, SI = log10(fugacity). Fugacity = pressure * phi / 1 atm.
  For ideal gases, phi = 1.

------------------
End of simulation.
------------------

-------------------------------------
Reading input data for simulation 37.
-------------------------------------

	SOLUTION 35
	pH		9.8
	Cl		0.15		mol/kgw
	Na		0.15		mol/kgw
	Zn	0.200 	mmol/kgw
	Nta  0.200 	mmol/kgw
	END
-------------------------------------------
Beginning of initial solution calculations.
-------------------------------------------

Initial solution 35.	

-----------------------------Solution composition------------------------------

	Elements           Molality       Moles

	Cl                1.500e-01   1.500e-01
	Na                1.500e-01   1.500e-01
	Nta               2.000e-04   2.000e-04
	Zn                2.000e-04   2.000e-04

----------------------------Description of solution----------------------------

                                       pH  =   9.800    
                                       pe  =   4.000    
                        Activity of water  =   0.995
                 Ionic strength (mol/kgw)  =   1.503e-01
                       Mass of water (kg)  =   1.000e+00
                 Total alkalinity (eq/kg)  =   4.058e-04
                         Temperature (°C)  =  25.00
                  Electrical balance (eq)  =  -4.058e-04
 Percent error, 100*(Cat-|An|)/(Cat+|An|)  =  -0.14
                               Iterations  =   8
                                  Total H  = 1.110139e+02
                                  Total O  = 5.550704e+01

----------------------------Distribution of species----------------------------

                                               Log       Log       Log    mole V
   Species          Molality    Activity  Molality  Activity     Gamma   cm³/mol

   OH-             8.661e-05   6.321e-05    -4.062    -4.199    -0.137     (0)  
   H+              2.087e-10   1.585e-10    -9.681    -9.800    -0.119      0.00
   H2O             5.551e+01   9.949e-01     1.744    -0.002     0.000     18.07
Cl            1.500e-01
   Cl-             1.500e-01   1.139e-01    -0.824    -0.943    -0.119     (0)  
   ZnOHCl          6.485e-07   6.485e-07    -6.188    -6.188     0.000     (0)  
   ZnCl+           1.060e-08   7.836e-09    -7.975    -8.106    -0.131     (0)  
   ZnCl2           1.415e-09   1.415e-09    -8.849    -8.849     0.000     (0)  
   ZnCl3-          1.731e-10   1.280e-10    -9.762    -9.893    -0.131     (0)  
   ZnCl4-2         2.219e-11   7.293e-12   -10.654   -11.137    -0.483     (0)  
H(0)          3.436e-31
   H2              1.718e-31   1.778e-31   -30.765   -30.750     0.015     (0)  
Na            1.500e-01
   Na+             1.500e-01   1.139e-01    -0.824    -0.943    -0.119     (0)  
Nta           2.000e-04
   ZnOH(Nta)-2     1.135e-04   3.774e-05    -3.945    -4.423    -0.478     (0)  
   Zn(Nta)-        8.139e-05   6.181e-05    -4.089    -4.209    -0.119     (0)  
   Zn(Nta)2-4      1.533e-06   1.878e-08    -5.814    -7.726    -1.912     (0)  
   H(Nta)-2        1.275e-06   2.063e-07    -5.894    -6.685    -0.791     (0)  
   Nta-3           8.166e-07   6.863e-08    -6.088    -7.163    -1.075     (0)  
   H2(Nta)-        4.511e-14   2.861e-14   -13.346   -13.543    -0.198     (0)  
   H3(Nta)         4.535e-22   4.535e-22   -21.343   -21.343     0.000     (0)  
   H4(Nta)+        1.133e-30   7.187e-31   -29.946   -30.143    -0.198     (0)  
O(0)          3.065e-31
   O2              1.533e-31   1.587e-31   -30.815   -30.800     0.015     (0)  
Zn            2.000e-04
   ZnOH(Nta)-2     1.135e-04   3.774e-05    -3.945    -4.423    -0.478     (0)  
   Zn(Nta)-        8.139e-05   6.181e-05    -4.089    -4.209    -0.119     (0)  
   Zn(OH)2         1.734e-06   1.734e-06    -5.761    -5.761     0.000     (0)  
   Zn(Nta)2-4      1.533e-06   1.878e-08    -5.814    -7.726    -1.912     (0)  
   Zn(OH)3-        8.662e-07   5.494e-07    -6.062    -6.260    -0.198     (0)  
   ZnOHCl          6.485e-07   6.485e-07    -6.188    -6.188     0.000     (0)  
   ZnOH+           2.729e-07   1.731e-07    -6.564    -6.762    -0.198     (0)  
   Zn+2            8.232e-08   2.739e-08    -7.084    -7.562    -0.478     (0)  
   ZnCl+           1.060e-08   7.836e-09    -7.975    -8.106    -0.131     (0)  
   Zn(OH)4-2       8.543e-09   1.382e-09    -8.068    -8.859    -0.791     (0)  
   ZnCl2           1.415e-09   1.415e-09    -8.849    -8.849     0.000     (0)  
   ZnCl3-          1.731e-10   1.280e-10    -9.762    -9.893    -0.131     (0)  
   ZnCl4-2         2.219e-11   7.293e-12   -10.654   -11.137    -0.483     (0)  

------------------------------Saturation indices-------------------------------

  Phase               SI** log IAP   log K(298 K,   1 atm)

  Halite           -3.49     -1.89    1.60  NaCl
  O2(g)           -27.89     55.20   83.09  O2
  Zincite           0.70     12.04   11.33  ZnO
  Zn(OH)2          -0.17     12.03   12.20  Zn(OH)2
  Zn(OH)2(am)      -0.44     12.03   12.47  Zn(OH)2
  Zn(OH)2(beta)     0.28     12.03   11.75  Zn(OH)2
  Zn(OH)2(epsilon)   0.50     12.03   11.53  Zn(OH)2
  Zn(OH)2(gamma)    0.30     12.03   11.73  Zn(OH)2
  Zn2(OH)3Cl       -1.87     13.32   15.19  Zn2(OH)3Cl
  Zn5(OH)8Cl2       0.18     38.68   38.50  Zn5(OH)8Cl2
  ZnCl2           -16.50     -9.45    7.05  ZnCl2
  Znmetal         -41.35    -15.56   25.79  Zn
  ZnO(active)       0.85     12.04   11.19  ZnO

**For a gas, SI = log10(fugacity). Fugacity = pressure * phi / 1 atm.
  For ideal gases, phi = 1.

------------------
End of simulation.
------------------

-------------------------------------
Reading input data for simulation 38.
-------------------------------------

	SOLUTION 36
	pH		10.0
	Cl		0.15		mol/kgw
	Na		0.15		mol/kgw
	Zn	0.200 	mmol/kgw
	Nta  0.200 	mmol/kgw
	END
-------------------------------------------
Beginning of initial solution calculations.
-------------------------------------------

Initial solution 36.	

-----------------------------Solution composition------------------------------

	Elements           Molality       Moles

	Cl                1.500e-01   1.500e-01
	Na                1.500e-01   1.500e-01
	Nta               2.000e-04   2.000e-04
	Zn                2.000e-04   2.000e-04

----------------------------Description of solution----------------------------

                                       pH  =  10.000    
                                       pe  =   4.000    
                        Activity of water  =   0.995
                 Ionic strength (mol/kgw)  =   1.504e-01
                       Mass of water (kg)  =   1.000e+00
                 Total alkalinity (eq/kg)  =   4.791e-04
                         Temperature (°C)  =  25.00
                  Electrical balance (eq)  =  -4.791e-04
 Percent error, 100*(Cat-|An|)/(Cat+|An|)  =  -0.16
                               Iterations  =   6
                                  Total H  = 1.110139e+02
                                  Total O  = 5.550711e+01

----------------------------Distribution of species----------------------------

                                               Log       Log       Log    mole V
   Species          Molality    Activity  Molality  Activity     Gamma   cm³/mol

   OH-             1.373e-04   1.002e-04    -3.862    -3.999    -0.137     (0)  
   H+              1.317e-10   1.000e-10    -9.880   -10.000    -0.120      0.00
   H2O             5.551e+01   9.949e-01     1.744    -0.002     0.000     18.07
Cl            1.500e-01
   Cl-             1.500e-01   1.139e-01    -0.824    -0.943    -0.120     (0)  
   ZnOHCl          4.793e-07   4.793e-07    -6.319    -6.319     0.000     (0)  
   ZnCl+           4.941e-09   3.654e-09    -8.306    -8.437    -0.131     (0)  
   ZnCl2           6.598e-10   6.598e-10    -9.181    -9.181     0.000     (0)  
   ZnCl3-          8.072e-11   5.970e-11   -10.093   -10.224    -0.131     (0)  
   ZnCl4-2         1.035e-11   3.401e-12   -10.985   -11.468    -0.483     (0)  
H(0)          1.368e-31
   H2              6.839e-32   7.079e-32   -31.165   -31.150     0.015     (0)  
Na            1.500e-01
   Na+             1.500e-01   1.139e-01    -0.824    -0.943    -0.120     (0)  
Nta           2.000e-04
   ZnOH(Nta)-2     1.334e-04   4.438e-05    -3.875    -4.353    -0.478     (0)  
   Zn(Nta)-        6.038e-05   4.586e-05    -4.219    -4.339    -0.120     (0)  
   Zn(Nta)2-4      1.810e-06   2.216e-08    -5.742    -7.654    -1.912     (0)  
   Nta-3           1.299e-06   1.092e-07    -5.886    -6.962    -1.076     (0)  
   H(Nta)-2        1.280e-06   2.071e-07    -5.893    -6.684    -0.791     (0)  
   H2(Nta)-        2.857e-14   1.812e-14   -13.544   -13.742    -0.198     (0)  
   H3(Nta)         1.812e-22   1.812e-22   -21.742   -21.742     0.000     (0)  
   H4(Nta)+        2.857e-31   1.812e-31   -30.544   -30.742    -0.198     (0)  
O(0)          1.934e-30
   O2              9.670e-31   1.001e-30   -30.015   -30.000     0.015     (0)  
Zn            2.000e-04
   ZnOH(Nta)-2     1.334e-04   4.438e-05    -3.875    -4.353    -0.478     (0)  
   Zn(Nta)-        6.038e-05   4.586e-05    -4.219    -4.339    -0.120     (0)  
   Zn(OH)2         2.031e-06   2.031e-06    -5.692    -5.692     0.000     (0)  
   Zn(Nta)2-4      1.810e-06   2.216e-08    -5.742    -7.654    -1.912     (0)  
   Zn(OH)3-        1.608e-06   1.020e-06    -5.794    -5.991    -0.198     (0)  
   ZnOHCl          4.793e-07   4.793e-07    -6.319    -6.319     0.000     (0)  
   ZnOH+           2.017e-07   1.279e-07    -6.695    -6.893    -0.198     (0)  
   Zn+2            3.839e-08   1.277e-08    -7.416    -7.894    -0.478     (0)  
   Zn(OH)4-2       2.515e-08   4.068e-09    -7.600    -8.391    -0.791     (0)  
   ZnCl+           4.941e-09   3.654e-09    -8.306    -8.437    -0.131     (0)  
   ZnCl2           6.598e-10   6.598e-10    -9.181    -9.181     0.000     (0)  
   ZnCl3-          8.072e-11   5.970e-11   -10.093   -10.224    -0.131     (0)  
   ZnCl4-2         1.035e-11   3.401e-12   -10.985   -11.468    -0.483     (0)  

------------------------------Saturation indices-------------------------------

  Phase               SI** log IAP   log K(298 K,   1 atm)

  Halite           -3.49     -1.89    1.60  NaCl
  O2(g)           -27.09     56.00   83.09  O2
  Zincite           0.77     12.10   11.33  ZnO
  Zn(OH)2          -0.10     12.10   12.20  Zn(OH)2
  Zn(OH)2(am)      -0.37     12.10   12.47  Zn(OH)2
  Zn(OH)2(beta)     0.35     12.10   11.75  Zn(OH)2
  Zn(OH)2(epsilon)   0.57     12.10   11.53  Zn(OH)2
  Zn(OH)2(gamma)    0.37     12.10   11.73  Zn(OH)2
  Zn2(OH)3Cl       -1.93     13.26   15.19  Zn2(OH)3Cl
  Zn5(OH)8Cl2       0.13     38.63   38.50  Zn5(OH)8Cl2
  ZnCl2           -16.83     -9.78    7.05  ZnCl2
  Znmetal         -41.68    -15.89   25.79  Zn
  ZnO(active)       0.92     12.10   11.19  ZnO

**For a gas, SI = log10(fugacity). Fugacity = pressure * phi / 1 atm.
  For ideal gases, phi = 1.

------------------
End of simulation.
------------------

-------------------------------------
Reading input data for simulation 39.
-------------------------------------

----------------------------------
End of Run after 0.060211 Seconds.
----------------------------------

