   Input file: /Users/wangjincheng/Desktop/git/irp-jw21/Project_jw21/pqi/0.2ZnNta.pqi
  Output file: /Users/wangjincheng/Desktop/git/irp-jw21/Project_jw21/pqo/0.2ZnNta.pqi.pqi.out
Database file: /Users/wangjincheng/Desktop/git/irp-jw21/Project_jw21/phreeqc/database/minteq.v4.dat

------------------
Reading data base.
------------------

	SOLUTION_MASTER_SPECIES
	SOLUTION_SPECIES
	SOLUTION_SPECIES
	PHASES
	PHASES
	SURFACE_MASTER_SPECIES
	SURFACE_SPECIES
	END
------------------------------------
Reading input data for simulation 1.
------------------------------------

	DATABASE /Users/wangjincheng/Desktop/git/irp-jw21/Project_jw21/phreeqc/database/minteq.v4.dat
	TITLE 04_SURFACE_COMPLEXATION
	SOLUTION_MASTER_SPECIES
	Zn		Zn+2		0.0	Zn	65.39
	Nta		Nta-3		1.0	188.117	188.117
	END
-----
TITLE
-----

 04_SURFACE_COMPLEXATION

------------------
End of simulation.
------------------

------------------------------------
Reading input data for simulation 2.
------------------------------------

	SOLUTION_SPECIES
	Zn+2 + Nta-3 = Zn(Nta)-
	log_k		10.426
	Zn+2 + 2Nta-3 = Zn(Nta)2-4
	log_k		14.118
	Zn+2 + Nta-3 + H2O = ZnOH(Nta)-2 + H+
	log_k		0.444
	END
------------------
End of simulation.
------------------

------------------------------------
Reading input data for simulation 3.
------------------------------------

	SOLUTION 1
	pH		3.0
	Cl		0.2		mol/kgw
	Na		0.2		mol/kgw
	Zn	0.200 	mmol/kgw
	Nta  0.200 	mmol/kgw
	END
-------------------------------------------
Beginning of initial solution calculations.
-------------------------------------------

Initial solution 1.	

-----------------------------Solution composition------------------------------

	Elements           Molality       Moles

	Cl                2.000e-01   2.000e-01
	Na                2.000e-01   2.000e-01
	Nta               2.000e-04   2.000e-04
	Zn                2.000e-04   2.000e-04

----------------------------Description of solution----------------------------

                                       pH  =   3.000    
                                       pe  =   4.000    
                        Activity of water  =   0.993
                 Ionic strength (mol/kgw)  =   2.013e-01
                       Mass of water (kg)  =   1.000e+00
                 Total alkalinity (eq/kg)  =  -1.372e-03
                         Temperature (°C)  =  25.00
                  Electrical balance (eq)  =   1.372e-03
 Percent error, 100*(Cat-|An|)/(Cat+|An|)  =   0.34
                               Iterations  =   8
                                  Total H  = 1.110152e+02
                                  Total O  = 5.550683e+01

----------------------------Distribution of species----------------------------

                                               Log       Log       Log    mole V
   Species          Molality    Activity  Molality  Activity     Gamma   cm³/mol

   H+              1.340e-03   1.000e-03    -2.873    -3.000    -0.127      0.00
   OH-             1.416e-11   1.000e-11   -10.849   -11.000    -0.151     (0)  
   H2O             5.551e+01   9.932e-01     1.744    -0.003     0.000     18.07
Cl            2.000e-01
   Cl-             2.000e-01   1.492e-01    -0.699    -0.826    -0.127     (0)  
   ZnCl+           2.683e-05   1.926e-05    -4.571    -4.715    -0.144     (0)  
   ZnCl2           4.554e-06   4.554e-06    -5.342    -5.342     0.000     (0)  
   ZnCl3-          7.519e-07   5.398e-07    -6.124    -6.268    -0.144     (0)  
   ZnCl4-2         1.355e-07   4.027e-08    -6.868    -7.395    -0.527     (0)  
   ZnOHCl          2.522e-10   2.522e-10    -9.598    -9.598     0.000     (0)  
H(0)          1.352e-17
   H2              6.759e-18   7.079e-18   -17.170   -17.150     0.020     (0)  
Na            2.000e-01
   Na+             2.000e-01   1.492e-01    -0.699    -0.826    -0.127     (0)  
Nta           2.000e-04
   H(Nta)-2        1.663e-04   2.021e-05    -3.779    -4.695    -0.915     (0)  
   H2(Nta)-        2.995e-05   1.768e-05    -4.524    -4.753    -0.229     (0)  
   Zn(Nta)-        1.957e-06   1.460e-06    -5.709    -5.836    -0.127     (0)  
   H3(Nta)         1.768e-06   1.768e-06    -5.753    -5.753     0.000     (0)  
   H4(Nta)+        2.995e-08   1.768e-08    -7.524    -7.753    -0.229     (0)  
   Nta-3           1.486e-11   1.065e-12   -10.828   -11.973    -1.144     (0)  
   Zn(Nta)2-4      8.288e-13   7.652e-15   -12.082   -14.116    -2.035     (0)  
   ZnOH(Nta)-2     4.875e-13   1.511e-13   -12.312   -12.821    -0.509     (0)  
O(0)          0.000e+00
   O2              0.000e+00   0.000e+00   -58.021   -58.001     0.020     (0)  
Zn            2.000e-04
   Zn+2            1.658e-04   5.139e-05    -3.780    -4.289    -0.509     (0)  
   ZnCl+           2.683e-05   1.926e-05    -4.571    -4.715    -0.144     (0)  
   ZnCl2           4.554e-06   4.554e-06    -5.342    -5.342     0.000     (0)  
   Zn(Nta)-        1.957e-06   1.460e-06    -5.709    -5.836    -0.127     (0)  
   ZnCl3-          7.519e-07   5.398e-07    -6.124    -6.268    -0.144     (0)  
   ZnCl4-2         1.355e-07   4.027e-08    -6.868    -7.395    -0.527     (0)  
   ZnOHCl          2.522e-10   2.522e-10    -9.598    -9.598     0.000     (0)  
   ZnOH+           8.704e-11   5.139e-11   -10.060   -10.289    -0.229     (0)  
   Zn(Nta)2-4      8.288e-13   7.652e-15   -12.082   -14.116    -2.035     (0)  
   ZnOH(Nta)-2     4.875e-13   1.511e-13   -12.312   -12.821    -0.509     (0)  
   Zn(OH)2         8.145e-17   8.145e-17   -16.089   -16.089     0.000     (0)  
   Zn(OH)3-        6.915e-24   4.083e-24   -23.160   -23.389    -0.229     (0)  
   Zn(OH)4-2       1.338e-32   1.625e-33   -31.874   -32.789    -0.915     (0)  

------------------------------Saturation indices-------------------------------

  Phase               SI** log IAP   log K(298 K,   1 atm)

  Halite           -3.25     -1.65    1.60  NaCl
  O2(g)           -55.10     27.99   83.09  O2
  Zincite          -9.63      1.71   11.33  ZnO
  Zn(OH)2         -10.50      1.70   12.20  Zn(OH)2
  Zn(OH)2(am)     -10.77      1.70   12.47  Zn(OH)2
  Zn(OH)2(beta)   -10.05      1.70   11.75  Zn(OH)2
  Zn(OH)2(epsilon)  -9.83      1.70   11.53  Zn(OH)2
  Zn(OH)2(gamma)  -10.03      1.70   11.73  Zn(OH)2
  Zn2(OH)3Cl      -15.60     -0.41   15.19  Zn2(OH)3Cl
  Zn5(OH)8Cl2     -37.62      0.88   38.50  Zn5(OH)8Cl2
  ZnCl2           -12.99     -5.94    7.05  ZnCl2
  Znmetal         -38.08    -12.29   25.79  Zn
  ZnO(active)      -9.48      1.71   11.19  ZnO

**For a gas, SI = log10(fugacity). Fugacity = pressure * phi / 1 atm.
  For ideal gases, phi = 1.

------------------
End of simulation.
------------------

------------------------------------
Reading input data for simulation 4.
------------------------------------

	SOLUTION 2
	pH		3.2
	Cl		0.2		mol/kgw
	Na		0.2		mol/kgw
	Zn	0.200 	mmol/kgw
	Nta  0.200 	mmol/kgw
	END
-------------------------------------------
Beginning of initial solution calculations.
-------------------------------------------

Initial solution 2.	

-----------------------------Solution composition------------------------------

	Elements           Molality       Moles

	Cl                2.000e-01   2.000e-01
	Na                2.000e-01   2.000e-01
	Nta               2.000e-04   2.000e-04
	Zn                2.000e-04   2.000e-04

----------------------------Description of solution----------------------------

                                       pH  =   3.200    
                                       pe  =   4.000    
                        Activity of water  =   0.993
                 Ionic strength (mol/kgw)  =   2.011e-01
                       Mass of water (kg)  =   1.000e+00
                 Total alkalinity (eq/kg)  =  -8.638e-04
                         Temperature (°C)  =  25.00
                  Electrical balance (eq)  =   8.638e-04
 Percent error, 100*(Cat-|An|)/(Cat+|An|)  =   0.22
                               Iterations  =   8
                                  Total H  = 1.110147e+02
                                  Total O  = 5.550683e+01

----------------------------Distribution of species----------------------------

                                               Log       Log       Log    mole V
   Species          Molality    Activity  Molality  Activity     Gamma   cm³/mol

   H+              8.455e-04   6.310e-04    -3.073    -3.200    -0.127      0.00
   OH-             2.244e-11   1.585e-11   -10.649   -10.800    -0.151     (0)  
   H2O             5.551e+01   9.932e-01     1.744    -0.003     0.000     18.07
Cl            2.000e-01
   Cl-             2.000e-01   1.492e-01    -0.699    -0.826    -0.127     (0)  
   ZnCl+           2.666e-05   1.914e-05    -4.574    -4.718    -0.144     (0)  
   ZnCl2           4.526e-06   4.526e-06    -5.344    -5.344     0.000     (0)  
   ZnCl3-          7.472e-07   5.364e-07    -6.127    -6.270    -0.144     (0)  
   ZnCl4-2         1.346e-07   4.002e-08    -6.871    -7.398    -0.527     (0)  
   ZnOHCl          3.971e-10   3.971e-10    -9.401    -9.401     0.000     (0)  
H(0)          5.382e-18
   H2              2.691e-18   2.818e-18   -17.570   -17.550     0.020     (0)  
Na            2.000e-01
   Na+             2.000e-01   1.492e-01    -0.699    -0.826    -0.127     (0)  
Nta           2.000e-04
   H(Nta)-2        1.760e-04   2.141e-05    -3.755    -4.669    -0.915     (0)  
   H2(Nta)-        2.001e-05   1.182e-05    -4.699    -4.927    -0.229     (0)  
   Zn(Nta)-        3.264e-06   2.436e-06    -5.486    -5.613    -0.127     (0)  
   H3(Nta)         7.457e-07   7.457e-07    -6.127    -6.127     0.000     (0)  
   H4(Nta)+        7.967e-09   4.705e-09    -8.099    -8.327    -0.229     (0)  
   Nta-3           2.493e-11   1.789e-12   -10.603   -11.747    -1.144     (0)  
   Zn(Nta)2-4      2.319e-12   2.144e-14   -11.635   -13.669    -2.034     (0)  
   ZnOH(Nta)-2     1.289e-12   3.996e-13   -11.890   -12.398    -0.509     (0)  
O(0)          0.000e+00
   O2              0.000e+00   0.000e+00   -57.221   -57.201     0.020     (0)  
Zn            2.000e-04
   Zn+2            1.647e-04   5.106e-05    -3.783    -4.292    -0.509     (0)  
   ZnCl+           2.666e-05   1.914e-05    -4.574    -4.718    -0.144     (0)  
   ZnCl2           4.526e-06   4.526e-06    -5.344    -5.344     0.000     (0)  
   Zn(Nta)-        3.264e-06   2.436e-06    -5.486    -5.613    -0.127     (0)  
   ZnCl3-          7.472e-07   5.364e-07    -6.127    -6.270    -0.144     (0)  
   ZnCl4-2         1.346e-07   4.002e-08    -6.871    -7.398    -0.527     (0)  
   ZnOHCl          3.971e-10   3.971e-10    -9.401    -9.401     0.000     (0)  
   ZnOH+           1.370e-10   8.093e-11    -9.863   -10.092    -0.229     (0)  
   Zn(Nta)2-4      2.319e-12   2.144e-14   -11.635   -13.669    -2.034     (0)  
   ZnOH(Nta)-2     1.289e-12   3.996e-13   -11.890   -12.398    -0.509     (0)  
   Zn(OH)2         2.033e-16   2.033e-16   -15.692   -15.692     0.000     (0)  
   Zn(OH)3-        2.734e-23   1.615e-23   -22.563   -22.792    -0.229     (0)  
   Zn(OH)4-2       8.377e-32   1.019e-32   -31.077   -31.992    -0.915     (0)  

------------------------------Saturation indices-------------------------------

  Phase               SI** log IAP   log K(298 K,   1 atm)

  Halite           -3.25     -1.65    1.60  NaCl
  O2(g)           -54.30     28.79   83.09  O2
  Zincite          -9.23      2.11   11.33  ZnO
  Zn(OH)2         -10.10      2.10   12.20  Zn(OH)2
  Zn(OH)2(am)     -10.37      2.10   12.47  Zn(OH)2
  Zn(OH)2(beta)    -9.65      2.10   11.75  Zn(OH)2
  Zn(OH)2(epsilon)  -9.43      2.10   11.53  Zn(OH)2
  Zn(OH)2(gamma)   -9.63      2.10   11.73  Zn(OH)2
  Zn2(OH)3Cl      -15.01      0.18   15.19  Zn2(OH)3Cl
  Zn5(OH)8Cl2     -36.04      2.46   38.50  Zn5(OH)8Cl2
  ZnCl2           -12.99     -5.94    7.05  ZnCl2
  Znmetal         -38.08    -12.29   25.79  Zn
  ZnO(active)      -9.08      2.11   11.19  ZnO

**For a gas, SI = log10(fugacity). Fugacity = pressure * phi / 1 atm.
  For ideal gases, phi = 1.

------------------
End of simulation.
------------------

------------------------------------
Reading input data for simulation 5.
------------------------------------

	SOLUTION 3
	pH		3.4
	Cl		0.2		mol/kgw
	Na		0.2		mol/kgw
	Zn	0.200 	mmol/kgw
	Nta  0.200 	mmol/kgw
	END
-------------------------------------------
Beginning of initial solution calculations.
-------------------------------------------

Initial solution 3.	

-----------------------------Solution composition------------------------------

	Elements           Molality       Moles

	Cl                2.000e-01   2.000e-01
	Na                2.000e-01   2.000e-01
	Nta               2.000e-04   2.000e-04
	Zn                2.000e-04   2.000e-04

----------------------------Description of solution----------------------------

                                       pH  =   3.400    
                                       pe  =   4.000    
                        Activity of water  =   0.993
                 Ionic strength (mol/kgw)  =   2.010e-01
                       Mass of water (kg)  =   1.000e+00
                 Total alkalinity (eq/kg)  =  -5.418e-04
                         Temperature (°C)  =  25.00
                  Electrical balance (eq)  =   5.418e-04
 Percent error, 100*(Cat-|An|)/(Cat+|An|)  =   0.14
                               Iterations  =   8
                                  Total H  = 1.110144e+02
                                  Total O  = 5.550683e+01

----------------------------Distribution of species----------------------------

                                               Log       Log       Log    mole V
   Species          Molality    Activity  Molality  Activity     Gamma   cm³/mol

   H+              5.335e-04   3.981e-04    -3.273    -3.400    -0.127      0.00
   OH-             3.556e-11   2.512e-11   -10.449   -10.600    -0.151     (0)  
   H2O             5.551e+01   9.932e-01     1.744    -0.003     0.000     18.07
Cl            2.000e-01
   Cl-             2.000e-01   1.492e-01    -0.699    -0.826    -0.127     (0)  
   ZnCl+           2.639e-05   1.894e-05    -4.579    -4.723    -0.144     (0)  
   ZnCl2           4.480e-06   4.480e-06    -5.349    -5.349     0.000     (0)  
   ZnCl3-          7.396e-07   5.311e-07    -6.131    -6.275    -0.144     (0)  
   ZnCl4-2         1.333e-07   3.962e-08    -6.875    -7.402    -0.527     (0)  
   ZnOHCl          6.230e-10   6.230e-10    -9.205    -9.205     0.000     (0)  
H(0)          2.143e-18
   H2              1.071e-18   1.122e-18   -17.970   -17.950     0.020     (0)  
Na            2.000e-01
   Na+             2.000e-01   1.492e-01    -0.699    -0.826    -0.127     (0)  
Nta           2.000e-04
   H(Nta)-2        1.814e-04   2.208e-05    -3.741    -4.656    -0.915     (0)  
   H2(Nta)-        1.302e-05   7.692e-06    -4.885    -5.114    -0.229     (0)  
   Zn(Nta)-        5.282e-06   3.942e-06    -5.277    -5.404    -0.127     (0)  
   H3(Nta)         3.062e-07   3.062e-07    -6.514    -6.514     0.000     (0)  
   H4(Nta)+        2.064e-09   1.219e-09    -8.685    -8.914    -0.229     (0)  
   Nta-3           4.075e-11   2.925e-12   -10.390   -11.534    -1.144     (0)  
   Zn(Nta)2-4      6.133e-12   5.672e-14   -11.212   -13.246    -2.034     (0)  
   ZnOH(Nta)-2     3.305e-12   1.025e-12   -11.481   -11.989    -0.508     (0)  
O(0)          0.000e+00
   O2              0.000e+00   0.000e+00   -56.421   -56.401     0.020     (0)  
Zn            2.000e-04
   Zn+2            1.630e-04   5.054e-05    -3.788    -4.296    -0.508     (0)  
   ZnCl+           2.639e-05   1.894e-05    -4.579    -4.723    -0.144     (0)  
   Zn(Nta)-        5.282e-06   3.942e-06    -5.277    -5.404    -0.127     (0)  
   ZnCl2           4.480e-06   4.480e-06    -5.349    -5.349     0.000     (0)  
   ZnCl3-          7.396e-07   5.311e-07    -6.131    -6.275    -0.144     (0)  
   ZnCl4-2         1.333e-07   3.962e-08    -6.875    -7.402    -0.527     (0)  
   ZnOHCl          6.230e-10   6.230e-10    -9.205    -9.205     0.000     (0)  
   ZnOH+           2.149e-10   1.270e-10    -9.668    -9.896    -0.229     (0)  
   Zn(Nta)2-4      6.133e-12   5.672e-14   -11.212   -13.246    -2.034     (0)  
   ZnOH(Nta)-2     3.305e-12   1.025e-12   -11.481   -11.989    -0.508     (0)  
   Zn(OH)2         5.055e-16   5.055e-16   -15.296   -15.296     0.000     (0)  
   Zn(OH)3-        1.077e-22   6.364e-23   -21.968   -22.196    -0.229     (0)  
   Zn(OH)4-2       5.228e-31   6.365e-32   -30.282   -31.196    -0.915     (0)  

------------------------------Saturation indices-------------------------------

  Phase               SI** log IAP   log K(298 K,   1 atm)

  Halite           -3.25     -1.65    1.60  NaCl
  O2(g)           -53.50     29.59   83.09  O2
  Zincite          -8.83      2.50   11.33  ZnO
  Zn(OH)2          -9.70      2.50   12.20  Zn(OH)2
  Zn(OH)2(am)      -9.98      2.50   12.47  Zn(OH)2
  Zn(OH)2(beta)    -9.26      2.50   11.75  Zn(OH)2
  Zn(OH)2(epsilon)  -9.04      2.50   11.53  Zn(OH)2
  Zn(OH)2(gamma)   -9.24      2.50   11.73  Zn(OH)2
  Zn2(OH)3Cl      -14.42      0.77   15.19  Zn2(OH)3Cl
  Zn5(OH)8Cl2     -34.46      4.04   38.50  Zn5(OH)8Cl2
  ZnCl2           -13.00     -5.95    7.05  ZnCl2
  Znmetal         -38.08    -12.30   25.79  Zn
  ZnO(active)      -8.69      2.50   11.19  ZnO

**For a gas, SI = log10(fugacity). Fugacity = pressure * phi / 1 atm.
  For ideal gases, phi = 1.

------------------
End of simulation.
------------------

------------------------------------
Reading input data for simulation 6.
------------------------------------

	SOLUTION 4
	pH		3.6
	Cl		0.2		mol/kgw
	Na		0.2		mol/kgw
	Zn	0.200 	mmol/kgw
	Nta  0.200 	mmol/kgw
	END
-------------------------------------------
Beginning of initial solution calculations.
-------------------------------------------

Initial solution 4.	

-----------------------------Solution composition------------------------------

	Elements           Molality       Moles

	Cl                2.000e-01   2.000e-01
	Na                2.000e-01   2.000e-01
	Nta               2.000e-04   2.000e-04
	Zn                2.000e-04   2.000e-04

----------------------------Description of solution----------------------------

                                       pH  =   3.600    
                                       pe  =   4.000    
                        Activity of water  =   0.993
                 Ionic strength (mol/kgw)  =   2.009e-01
                       Mass of water (kg)  =   1.000e+00
                 Total alkalinity (eq/kg)  =  -3.368e-04
                         Temperature (°C)  =  25.00
                  Electrical balance (eq)  =   3.368e-04
 Percent error, 100*(Cat-|An|)/(Cat+|An|)  =   0.08
                               Iterations  =   8
                                  Total H  = 1.110142e+02
                                  Total O  = 5.550683e+01

----------------------------Distribution of species----------------------------

                                               Log       Log       Log    mole V
   Species          Molality    Activity  Molality  Activity     Gamma   cm³/mol

   H+              3.366e-04   2.512e-04    -3.473    -3.600    -0.127      0.00
   OH-             5.635e-11   3.981e-11   -10.249   -10.400    -0.151     (0)  
   H2O             5.551e+01   9.932e-01     1.744    -0.003     0.000     18.07
Cl            2.000e-01
   Cl-             2.000e-01   1.492e-01    -0.699    -0.826    -0.127     (0)  
   ZnCl+           2.597e-05   1.865e-05    -4.585    -4.729    -0.144     (0)  
   ZnCl2           4.411e-06   4.411e-06    -5.355    -5.355     0.000     (0)  
   ZnCl3-          7.282e-07   5.228e-07    -6.138    -6.282    -0.144     (0)  
   ZnCl4-2         1.312e-07   3.901e-08    -6.882    -7.409    -0.527     (0)  
   ZnOHCl          9.721e-10   9.721e-10    -9.012    -9.012     0.000     (0)  
H(0)          8.530e-19
   H2              4.265e-19   4.467e-19   -18.370   -18.350     0.020     (0)  
Na            2.000e-01
   Na+             2.000e-01   1.493e-01    -0.699    -0.826    -0.127     (0)  
Nta           2.000e-04
   H(Nta)-2        1.832e-04   2.232e-05    -3.737    -4.651    -0.914     (0)  
   Zn(Nta)-        8.330e-06   6.217e-06    -5.079    -5.206    -0.127     (0)  
   H2(Nta)-        8.304e-06   4.906e-06    -5.081    -5.309    -0.229     (0)  
   H3(Nta)         1.232e-07   1.232e-07    -6.909    -6.909     0.000     (0)  
   H4(Nta)+        5.239e-10   3.095e-10    -9.281    -9.509    -0.229     (0)  
   Nta-3           6.526e-11   4.685e-12   -10.185   -11.329    -1.144     (0)  
   Zn(Nta)2-4      1.549e-11   1.433e-13   -10.810   -12.844    -2.034     (0)  
   ZnOH(Nta)-2     8.261e-12   2.562e-12   -11.083   -11.591    -0.508     (0)  
O(0)          0.000e+00
   O2              0.000e+00   0.000e+00   -55.621   -55.601     0.020     (0)  
Zn            2.000e-04
   Zn+2            1.604e-04   4.976e-05    -3.795    -4.303    -0.508     (0)  
   ZnCl+           2.597e-05   1.865e-05    -4.585    -4.729    -0.144     (0)  
   Zn(Nta)-        8.330e-06   6.217e-06    -5.079    -5.206    -0.127     (0)  
   ZnCl2           4.411e-06   4.411e-06    -5.355    -5.355     0.000     (0)  
   ZnCl3-          7.282e-07   5.228e-07    -6.138    -6.282    -0.144     (0)  
   ZnCl4-2         1.312e-07   3.901e-08    -6.882    -7.409    -0.527     (0)  
   ZnOHCl          9.721e-10   9.721e-10    -9.012    -9.012     0.000     (0)  
   ZnOH+           3.353e-10   1.981e-10    -9.475    -9.703    -0.229     (0)  
   Zn(Nta)2-4      1.549e-11   1.433e-13   -10.810   -12.844    -2.034     (0)  
   ZnOH(Nta)-2     8.261e-12   2.562e-12   -11.083   -11.591    -0.508     (0)  
   Zn(OH)2         1.250e-15   1.250e-15   -14.903   -14.903     0.000     (0)  
   Zn(OH)3-        4.222e-22   2.494e-22   -21.374   -21.603    -0.229     (0)  
   Zn(OH)4-2       3.246e-30   3.953e-31   -29.489   -30.403    -0.914     (0)  

------------------------------Saturation indices-------------------------------

  Phase               SI** log IAP   log K(298 K,   1 atm)

  Halite           -3.25     -1.65    1.60  NaCl
  O2(g)           -52.70     30.39   83.09  O2
  Zincite          -8.44      2.89   11.33  ZnO
  Zn(OH)2          -9.31      2.89   12.20  Zn(OH)2
  Zn(OH)2(am)      -9.58      2.89   12.47  Zn(OH)2
  Zn(OH)2(beta)    -8.86      2.89   11.75  Zn(OH)2
  Zn(OH)2(epsilon)  -8.64      2.89   11.53  Zn(OH)2
  Zn(OH)2(gamma)   -8.84      2.89   11.73  Zn(OH)2
  Zn2(OH)3Cl      -13.83      1.36   15.19  Zn2(OH)3Cl
  Zn5(OH)8Cl2     -32.89      5.61   38.50  Zn5(OH)8Cl2
  ZnCl2           -13.01     -5.96    7.05  ZnCl2
  Znmetal         -38.09    -12.30   25.79  Zn
  ZnO(active)      -8.29      2.89   11.19  ZnO

**For a gas, SI = log10(fugacity). Fugacity = pressure * phi / 1 atm.
  For ideal gases, phi = 1.

------------------
End of simulation.
------------------

------------------------------------
Reading input data for simulation 7.
------------------------------------

	SOLUTION 5
	pH		3.8
	Cl		0.2		mol/kgw
	Na		0.2		mol/kgw
	Zn	0.200 	mmol/kgw
	Nta  0.200 	mmol/kgw
	END
-------------------------------------------
Beginning of initial solution calculations.
-------------------------------------------

Initial solution 5.	

-----------------------------Solution composition------------------------------

	Elements           Molality       Moles

	Cl                2.000e-01   2.000e-01
	Na                2.000e-01   2.000e-01
	Nta               2.000e-04   2.000e-04
	Zn                2.000e-04   2.000e-04

----------------------------Description of solution----------------------------

                                       pH  =   3.800    
                                       pe  =   4.000    
                        Activity of water  =   0.993
                 Ionic strength (mol/kgw)  =   2.008e-01
                       Mass of water (kg)  =   1.000e+00
                 Total alkalinity (eq/kg)  =  -2.049e-04
                         Temperature (°C)  =  25.00
                  Electrical balance (eq)  =   2.049e-04
 Percent error, 100*(Cat-|An|)/(Cat+|An|)  =   0.05
                               Iterations  =   7
                                  Total H  = 1.110141e+02
                                  Total O  = 5.550683e+01

----------------------------Distribution of species----------------------------

                                               Log       Log       Log    mole V
   Species          Molality    Activity  Molality  Activity     Gamma   cm³/mol

   H+              2.124e-04   1.585e-04    -3.673    -3.800    -0.127      0.00
   OH-             8.930e-11   6.310e-11   -10.049   -10.200    -0.151     (0)  
   H2O             5.551e+01   9.932e-01     1.744    -0.003     0.000     18.07
Cl            2.000e-01
   Cl-             2.000e-01   1.492e-01    -0.699    -0.826    -0.127     (0)  
   ZnCl+           2.537e-05   1.822e-05    -4.596    -4.740    -0.144     (0)  
   ZnCl2           4.308e-06   4.308e-06    -5.366    -5.366     0.000     (0)  
   ZnCl3-          7.112e-07   5.107e-07    -6.148    -6.292    -0.144     (0)  
   ZnCl4-2         1.281e-07   3.811e-08    -6.892    -7.419    -0.527     (0)  
   ZnOHCl          1.505e-09   1.505e-09    -8.823    -8.823     0.000     (0)  
H(0)          3.396e-19
   H2              1.698e-19   1.778e-19   -18.770   -18.750     0.020     (0)  
Na            2.000e-01
   Na+             2.000e-01   1.493e-01    -0.699    -0.826    -0.127     (0)  
Nta           2.000e-04
   H(Nta)-2        1.819e-04   2.217e-05    -3.740    -4.654    -0.914     (0)  
   Zn(Nta)-        1.281e-05   9.558e-06    -4.893    -5.020    -0.127     (0)  
   H2(Nta)-        5.204e-06   3.074e-06    -5.284    -5.512    -0.229     (0)  
   H3(Nta)         4.873e-08   4.873e-08    -7.312    -7.312     0.000     (0)  
   H4(Nta)+        1.307e-10   7.723e-11    -9.884   -10.112    -0.229     (0)  
   Nta-3           1.027e-10   7.375e-12    -9.988   -11.132    -1.144     (0)  
   Zn(Nta)2-4      3.747e-11   3.469e-13   -10.426   -12.460    -2.034     (0)  
   ZnOH(Nta)-2     2.013e-11   6.243e-12   -10.696   -11.205    -0.508     (0)  
O(0)          0.000e+00
   O2              0.000e+00   0.000e+00   -54.821   -54.801     0.020     (0)  
Zn            2.000e-04
   Zn+2            1.567e-04   4.860e-05    -3.805    -4.313    -0.508     (0)  
   ZnCl+           2.537e-05   1.822e-05    -4.596    -4.740    -0.144     (0)  
   Zn(Nta)-        1.281e-05   9.558e-06    -4.893    -5.020    -0.127     (0)  
   ZnCl2           4.308e-06   4.308e-06    -5.366    -5.366     0.000     (0)  
   ZnCl3-          7.112e-07   5.107e-07    -6.148    -6.292    -0.144     (0)  
   ZnCl4-2         1.281e-07   3.811e-08    -6.892    -7.419    -0.527     (0)  
   ZnOHCl          1.505e-09   1.505e-09    -8.823    -8.823     0.000     (0)  
   ZnOH+           5.190e-10   3.066e-10    -9.285    -9.513    -0.229     (0)  
   Zn(Nta)2-4      3.747e-11   3.469e-13   -10.426   -12.460    -2.034     (0)  
   ZnOH(Nta)-2     2.013e-11   6.243e-12   -10.696   -11.205    -0.508     (0)  
   Zn(OH)2         3.067e-15   3.067e-15   -14.513   -14.513     0.000     (0)  
   Zn(OH)3-        1.641e-21   9.698e-22   -20.785   -21.013    -0.229     (0)  
   Zn(OH)4-2       1.999e-29   2.436e-30   -28.699   -29.613    -0.914     (0)  

------------------------------Saturation indices-------------------------------

  Phase               SI** log IAP   log K(298 K,   1 atm)

  Halite           -3.25     -1.65    1.60  NaCl
  O2(g)           -51.90     31.19   83.09  O2
  Zincite          -8.05      3.28   11.33  ZnO
  Zn(OH)2          -8.92      3.28   12.20  Zn(OH)2
  Zn(OH)2(am)      -9.19      3.28   12.47  Zn(OH)2
  Zn(OH)2(beta)    -8.47      3.28   11.75  Zn(OH)2
  Zn(OH)2(epsilon)  -8.25      3.28   11.53  Zn(OH)2
  Zn(OH)2(gamma)   -8.45      3.28   11.73  Zn(OH)2
  Zn2(OH)3Cl      -13.25      1.94   15.19  Zn2(OH)3Cl
  Zn5(OH)8Cl2     -31.34      7.16   38.50  Zn5(OH)8Cl2
  ZnCl2           -13.02     -5.97    7.05  ZnCl2
  Znmetal         -38.10    -12.31   25.79  Zn
  ZnO(active)      -7.90      3.28   11.19  ZnO

**For a gas, SI = log10(fugacity). Fugacity = pressure * phi / 1 atm.
  For ideal gases, phi = 1.

------------------
End of simulation.
------------------

------------------------------------
Reading input data for simulation 8.
------------------------------------

	SOLUTION 6
	pH		4.0
	Cl		0.2		mol/kgw
	Na		0.2		mol/kgw
	Zn	0.200 	mmol/kgw
	Nta  0.200 	mmol/kgw
	END
-------------------------------------------
Beginning of initial solution calculations.
-------------------------------------------

Initial solution 6.	

-----------------------------Solution composition------------------------------

	Elements           Molality       Moles

	Cl                2.000e-01   2.000e-01
	Na                2.000e-01   2.000e-01
	Nta               2.000e-04   2.000e-04
	Zn                2.000e-04   2.000e-04

----------------------------Description of solution----------------------------

                                       pH  =   4.000    
                                       pe  =   4.000    
                        Activity of water  =   0.993
                 Ionic strength (mol/kgw)  =   2.007e-01
                       Mass of water (kg)  =   1.000e+00
                 Total alkalinity (eq/kg)  =  -1.181e-04
                         Temperature (°C)  =  25.00
                  Electrical balance (eq)  =   1.181e-04
 Percent error, 100*(Cat-|An|)/(Cat+|An|)  =   0.03
                               Iterations  =   7
                                  Total H  = 1.110140e+02
                                  Total O  = 5.550683e+01

----------------------------Distribution of species----------------------------

                                               Log       Log       Log    mole V
   Species          Molality    Activity  Molality  Activity     Gamma   cm³/mol

   H+              1.340e-04   1.000e-04    -3.873    -4.000    -0.127      0.00
   OH-             1.415e-10   1.000e-10    -9.849   -10.000    -0.151     (0)  
   H2O             5.551e+01   9.932e-01     1.744    -0.003     0.000     18.07
Cl            2.000e-01
   Cl-             2.000e-01   1.492e-01    -0.699    -0.826    -0.127     (0)  
   ZnCl+           2.451e-05   1.760e-05    -4.611    -4.754    -0.144     (0)  
   ZnCl2           4.163e-06   4.163e-06    -5.381    -5.381     0.000     (0)  
   ZnCl3-          6.872e-07   4.934e-07    -6.163    -6.307    -0.144     (0)  
   ZnCl4-2         1.238e-07   3.682e-08    -6.907    -7.434    -0.527     (0)  
   ZnOHCl          2.304e-09   2.304e-09    -8.637    -8.637     0.000     (0)  
H(0)          1.352e-19
   H2              6.760e-20   7.079e-20   -19.170   -19.150     0.020     (0)  
Na            2.000e-01
   Na+             2.000e-01   1.493e-01    -0.699    -0.826    -0.127     (0)  
Nta           2.000e-04
   H(Nta)-2        1.776e-04   2.165e-05    -3.751    -4.665    -0.914     (0)  
   Zn(Nta)-        1.915e-05   1.429e-05    -4.718    -4.845    -0.127     (0)  
   H2(Nta)-        3.206e-06   1.894e-06    -5.494    -5.723    -0.229     (0)  
   H3(Nta)         1.894e-08   1.894e-08    -7.723    -7.723     0.000     (0)  
   Nta-3           1.590e-10   1.141e-11    -9.799   -10.943    -1.144     (0)  
   Zn(Nta)2-4      8.671e-11   8.028e-13   -10.062   -12.095    -2.033     (0)  
   ZnOH(Nta)-2     4.770e-11   1.480e-11   -10.321   -10.830    -0.508     (0)  
   H4(Nta)+        3.206e-11   1.894e-11   -10.494   -10.723    -0.229     (0)  
O(0)          0.000e+00
   O2              0.000e+00   0.000e+00   -54.021   -54.001     0.020     (0)  
Zn            2.000e-04
   Zn+2            1.514e-04   4.695e-05    -3.820    -4.328    -0.508     (0)  
   ZnCl+           2.451e-05   1.760e-05    -4.611    -4.754    -0.144     (0)  
   Zn(Nta)-        1.915e-05   1.429e-05    -4.718    -4.845    -0.127     (0)  
   ZnCl2           4.163e-06   4.163e-06    -5.381    -5.381     0.000     (0)  
   ZnCl3-          6.872e-07   4.934e-07    -6.163    -6.307    -0.144     (0)  
   ZnCl4-2         1.238e-07   3.682e-08    -6.907    -7.434    -0.527     (0)  
   ZnOHCl          2.304e-09   2.304e-09    -8.637    -8.637     0.000     (0)  
   ZnOH+           7.947e-10   4.695e-10    -9.100    -9.328    -0.229     (0)  
   Zn(Nta)2-4      8.671e-11   8.028e-13   -10.062   -12.095    -2.033     (0)  
   ZnOH(Nta)-2     4.770e-11   1.480e-11   -10.321   -10.830    -0.508     (0)  
   Zn(OH)2         7.442e-15   7.442e-15   -14.128   -14.128     0.000     (0)  
   Zn(OH)3-        6.313e-21   3.730e-21   -20.200   -20.428    -0.229     (0)  
   Zn(OH)4-2       1.218e-28   1.485e-29   -27.914   -28.828    -0.914     (0)  

------------------------------Saturation indices-------------------------------

  Phase               SI** log IAP   log K(298 K,   1 atm)

  Halite           -3.25     -1.65    1.60  NaCl
  O2(g)           -51.10     31.99   83.09  O2
  Zincite          -7.67      3.67   11.33  ZnO
  Zn(OH)2          -8.53      3.67   12.20  Zn(OH)2
  Zn(OH)2(am)      -8.81      3.67   12.47  Zn(OH)2
  Zn(OH)2(beta)    -8.09      3.67   11.75  Zn(OH)2
  Zn(OH)2(epsilon)  -7.87      3.67   11.53  Zn(OH)2
  Zn(OH)2(gamma)   -8.07      3.67   11.73  Zn(OH)2
  Zn2(OH)3Cl      -12.68      2.51   15.19  Zn2(OH)3Cl
  Zn5(OH)8Cl2     -29.82      8.68   38.50  Zn5(OH)8Cl2
  ZnCl2           -13.03     -5.98    7.05  ZnCl2
  Znmetal         -38.12    -12.33   25.79  Zn
  ZnO(active)      -7.52      3.67   11.19  ZnO

**For a gas, SI = log10(fugacity). Fugacity = pressure * phi / 1 atm.
  For ideal gases, phi = 1.

------------------
End of simulation.
------------------

------------------------------------
Reading input data for simulation 9.
------------------------------------

	SOLUTION 7
	pH		4.2
	Cl		0.2		mol/kgw
	Na		0.2		mol/kgw
	Zn	0.200 	mmol/kgw
	Nta  0.200 	mmol/kgw
	END
-------------------------------------------
Beginning of initial solution calculations.
-------------------------------------------

Initial solution 7.	

-----------------------------Solution composition------------------------------

	Elements           Molality       Moles

	Cl                2.000e-01   2.000e-01
	Na                2.000e-01   2.000e-01
	Nta               2.000e-04   2.000e-04
	Zn                2.000e-04   2.000e-04

----------------------------Description of solution----------------------------

                                       pH  =   4.200    
                                       pe  =   4.000    
                        Activity of water  =   0.993
                 Ionic strength (mol/kgw)  =   2.007e-01
                       Mass of water (kg)  =   1.000e+00
                 Total alkalinity (eq/kg)  =  -5.876e-05
                         Temperature (°C)  =  25.00
                  Electrical balance (eq)  =   5.876e-05
 Percent error, 100*(Cat-|An|)/(Cat+|An|)  =   0.01
                               Iterations  =   7
                                  Total H  = 1.110139e+02
                                  Total O  = 5.550683e+01

----------------------------Distribution of species----------------------------

                                               Log       Log       Log    mole V
   Species          Molality    Activity  Molality  Activity     Gamma   cm³/mol

   H+              8.454e-05   6.310e-05    -4.073    -4.200    -0.127      0.00
   OH-             2.243e-10   1.585e-10    -9.649    -9.800    -0.151     (0)  
   H2O             5.551e+01   9.932e-01     1.744    -0.003     0.000     18.07
Cl            2.000e-01
   Cl-             2.000e-01   1.492e-01    -0.699    -0.826    -0.127     (0)  
   ZnCl+           2.335e-05   1.677e-05    -4.632    -4.776    -0.144     (0)  
   ZnCl2           3.965e-06   3.965e-06    -5.402    -5.402     0.000     (0)  
   ZnCl3-          6.546e-07   4.701e-07    -6.184    -6.328    -0.144     (0)  
   ZnCl4-2         1.179e-07   3.508e-08    -6.928    -7.455    -0.527     (0)  
   ZnOHCl          3.479e-09   3.479e-09    -8.459    -8.459     0.000     (0)  
H(0)          5.382e-20
   H2              2.691e-20   2.818e-20   -19.570   -19.550     0.020     (0)  
Na            2.000e-01
   Na+             2.000e-01   1.493e-01    -0.699    -0.826    -0.127     (0)  
Nta           2.000e-04
   H(Nta)-2        1.703e-04   2.077e-05    -3.769    -4.683    -0.914     (0)  
   Zn(Nta)-        2.773e-05   2.070e-05    -4.557    -4.684    -0.127     (0)  
   H2(Nta)-        1.940e-06   1.146e-06    -5.712    -5.941    -0.228     (0)  
   H3(Nta)         7.234e-09   7.234e-09    -8.141    -8.141     0.000     (0)  
   Nta-3           2.416e-10   1.735e-11    -9.617   -10.761    -1.144     (0)  
   Zn(Nta)2-4      1.908e-10   1.767e-12    -9.719   -11.753    -2.033     (0)  
   ZnOH(Nta)-2     1.095e-10   3.396e-11    -9.961   -10.469    -0.508     (0)  
   H4(Nta)+        7.724e-12   4.564e-12   -11.112   -11.341    -0.228     (0)  
O(0)          0.000e+00
   O2              0.000e+00   0.000e+00   -53.221   -53.201     0.020     (0)  
Zn            2.000e-04
   Zn+2            1.442e-04   4.473e-05    -3.841    -4.349    -0.508     (0)  
   Zn(Nta)-        2.773e-05   2.070e-05    -4.557    -4.684    -0.127     (0)  
   ZnCl+           2.335e-05   1.677e-05    -4.632    -4.776    -0.144     (0)  
   ZnCl2           3.965e-06   3.965e-06    -5.402    -5.402     0.000     (0)  
   ZnCl3-          6.546e-07   4.701e-07    -6.184    -6.328    -0.144     (0)  
   ZnCl4-2         1.179e-07   3.508e-08    -6.928    -7.455    -0.527     (0)  
   ZnOHCl          3.479e-09   3.479e-09    -8.459    -8.459     0.000     (0)  
   ZnOH+           1.200e-09   7.089e-10    -8.921    -9.149    -0.228     (0)  
   Zn(Nta)2-4      1.908e-10   1.767e-12    -9.719   -11.753    -2.033     (0)  
   ZnOH(Nta)-2     1.095e-10   3.396e-11    -9.961   -10.469    -0.508     (0)  
   Zn(OH)2         1.781e-14   1.781e-14   -13.749   -13.749     0.000     (0)  
   Zn(OH)3-        2.394e-20   1.415e-20   -19.621   -19.849    -0.228     (0)  
   Zn(OH)4-2       7.321e-28   8.927e-29   -27.135   -28.049    -0.914     (0)  

------------------------------Saturation indices-------------------------------

  Phase               SI** log IAP   log K(298 K,   1 atm)

  Halite           -3.25     -1.65    1.60  NaCl
  O2(g)           -50.30     32.79   83.09  O2
  Zincite          -7.29      4.05   11.33  ZnO
  Zn(OH)2          -8.16      4.04   12.20  Zn(OH)2
  Zn(OH)2(am)      -8.43      4.04   12.47  Zn(OH)2
  Zn(OH)2(beta)    -7.71      4.04   11.75  Zn(OH)2
  Zn(OH)2(epsilon)  -7.49      4.04   11.53  Zn(OH)2
  Zn(OH)2(gamma)   -7.69      4.04   11.73  Zn(OH)2
  Zn2(OH)3Cl      -12.12      3.07   15.19  Zn2(OH)3Cl
  Zn5(OH)8Cl2     -28.32     10.18   38.50  Zn5(OH)8Cl2
  ZnCl2           -13.05     -6.00    7.05  ZnCl2
  Znmetal         -38.14    -12.35   25.79  Zn
  ZnO(active)      -7.14      4.05   11.19  ZnO

**For a gas, SI = log10(fugacity). Fugacity = pressure * phi / 1 atm.
  For ideal gases, phi = 1.

------------------
End of simulation.
------------------

-------------------------------------
Reading input data for simulation 10.
-------------------------------------

	SOLUTION 8
	pH		4.4
	Cl		0.2		mol/kgw
	Na		0.2		mol/kgw
	Zn	0.200 	mmol/kgw
	Nta  0.200 	mmol/kgw
	END
-------------------------------------------
Beginning of initial solution calculations.
-------------------------------------------

Initial solution 8.	

-----------------------------Solution composition------------------------------

	Elements           Molality       Moles

	Cl                2.000e-01   2.000e-01
	Na                2.000e-01   2.000e-01
	Nta               2.000e-04   2.000e-04
	Zn                2.000e-04   2.000e-04

----------------------------Description of solution----------------------------

                                       pH  =   4.400    
                                       pe  =   4.000    
                        Activity of water  =   0.993
                 Ionic strength (mol/kgw)  =   2.006e-01
                       Mass of water (kg)  =   1.000e+00
                 Total alkalinity (eq/kg)  =  -1.579e-05
                         Temperature (°C)  =  25.00
                  Electrical balance (eq)  =   1.579e-05
 Percent error, 100*(Cat-|An|)/(Cat+|An|)  =   0.00
                               Iterations  =   8
                                  Total H  = 1.110139e+02
                                  Total O  = 5.550683e+01

----------------------------Distribution of species----------------------------

                                               Log       Log       Log    mole V
   Species          Molality    Activity  Molality  Activity     Gamma   cm³/mol

   H+              5.334e-05   3.981e-05    -4.273    -4.400    -0.127      0.00
   OH-             3.555e-10   2.512e-10    -9.449    -9.600    -0.151     (0)  
   H2O             5.551e+01   9.932e-01     1.744    -0.003     0.000     18.07
Cl            2.000e-01
   Cl-             2.000e-01   1.492e-01    -0.699    -0.826    -0.127     (0)  
   ZnCl+           2.186e-05   1.570e-05    -4.660    -4.804    -0.144     (0)  
   ZnCl2           3.713e-06   3.713e-06    -5.430    -5.430     0.000     (0)  
   ZnCl3-          6.130e-07   4.402e-07    -6.213    -6.356    -0.144     (0)  
   ZnCl4-2         1.104e-07   3.285e-08    -6.957    -7.483    -0.526     (0)  
   ZnOHCl          5.163e-09   5.163e-09    -8.287    -8.287     0.000     (0)  
H(0)          2.143e-20
   H2              1.071e-20   1.122e-20   -19.970   -19.950     0.020     (0)  
Na            2.000e-01
   Na+             2.000e-01   1.493e-01    -0.699    -0.826    -0.127     (0)  
Nta           2.000e-04
   H(Nta)-2        1.601e-04   1.953e-05    -3.795    -4.709    -0.914     (0)  
   Zn(Nta)-        3.870e-05   2.889e-05    -4.412    -4.539    -0.127     (0)  
   H2(Nta)-        1.151e-06   6.803e-07    -5.939    -6.167    -0.228     (0)  
   H3(Nta)         2.708e-09   2.708e-09    -8.567    -8.567     0.000     (0)  
   Zn(Nta)2-4      3.969e-10   3.676e-12    -9.401   -11.435    -2.033     (0)  
   Nta-3           3.601e-10   2.586e-11    -9.444   -10.587    -1.144     (0)  
   ZnOH(Nta)-2     2.421e-10   7.511e-11    -9.616   -10.124    -0.508     (0)  
   H4(Nta)+        1.825e-12   1.078e-12   -11.739   -11.967    -0.228     (0)  
O(0)          0.000e+00
   O2              0.000e+00   0.000e+00   -52.421   -52.401     0.020     (0)  
Zn            2.000e-04
   Zn+2            1.350e-04   4.188e-05    -3.870    -4.378    -0.508     (0)  
   Zn(Nta)-        3.870e-05   2.889e-05    -4.412    -4.539    -0.127     (0)  
   ZnCl+           2.186e-05   1.570e-05    -4.660    -4.804    -0.144     (0)  
   ZnCl2           3.713e-06   3.713e-06    -5.430    -5.430     0.000     (0)  
   ZnCl3-          6.130e-07   4.402e-07    -6.213    -6.356    -0.144     (0)  
   ZnCl4-2         1.104e-07   3.285e-08    -6.957    -7.483    -0.526     (0)  
   ZnOHCl          5.163e-09   5.163e-09    -8.287    -8.287     0.000     (0)  
   ZnOH+           1.780e-09   1.052e-09    -8.750    -8.978    -0.228     (0)  
   Zn(Nta)2-4      3.969e-10   3.676e-12    -9.401   -11.435    -2.033     (0)  
   ZnOH(Nta)-2     2.421e-10   7.511e-11    -9.616   -10.124    -0.508     (0)  
   Zn(OH)2         4.188e-14   4.188e-14   -13.378   -13.378     0.000     (0)  
   Zn(OH)3-        8.923e-20   5.273e-20   -19.049   -19.278    -0.228     (0)  
   Zn(OH)4-2       4.324e-27   5.274e-28   -26.364   -27.278    -0.914     (0)  

------------------------------Saturation indices-------------------------------

  Phase               SI** log IAP   log K(298 K,   1 atm)

  Halite           -3.25     -1.65    1.60  NaCl
  O2(g)           -49.50     33.59   83.09  O2
  Zincite          -6.91      4.42   11.33  ZnO
  Zn(OH)2          -7.78      4.42   12.20  Zn(OH)2
  Zn(OH)2(am)      -8.06      4.42   12.47  Zn(OH)2
  Zn(OH)2(beta)    -7.34      4.42   11.75  Zn(OH)2
  Zn(OH)2(epsilon)  -7.12      4.42   11.53  Zn(OH)2
  Zn(OH)2(gamma)   -7.32      4.42   11.73  Zn(OH)2
  Zn2(OH)3Cl      -11.58      3.61   15.19  Zn2(OH)3Cl
  Zn5(OH)8Cl2     -26.87     11.63   38.50  Zn5(OH)8Cl2
  ZnCl2           -13.08     -6.03    7.05  ZnCl2
  Znmetal         -38.17    -12.38   25.79  Zn
  ZnO(active)      -6.77      4.42   11.19  ZnO

**For a gas, SI = log10(fugacity). Fugacity = pressure * phi / 1 atm.
  For ideal gases, phi = 1.

------------------
End of simulation.
------------------

-------------------------------------
Reading input data for simulation 11.
-------------------------------------

	SOLUTION 9
	pH		4.6
	Cl		0.2		mol/kgw
	Na		0.2		mol/kgw
	Zn	0.200 	mmol/kgw
	Nta  0.200 	mmol/kgw
	END
-------------------------------------------
Beginning of initial solution calculations.
-------------------------------------------

Initial solution 9.	

-----------------------------Solution composition------------------------------

	Elements           Molality       Moles

	Cl                2.000e-01   2.000e-01
	Na                2.000e-01   2.000e-01
	Nta               2.000e-04   2.000e-04
	Zn                2.000e-04   2.000e-04

----------------------------Description of solution----------------------------

                                       pH  =   4.600    
                                       pe  =   4.000    
                        Activity of water  =   0.993
                 Ionic strength (mol/kgw)  =   2.006e-01
                       Mass of water (kg)  =   1.000e+00
                 Total alkalinity (eq/kg)  =   1.757e-05
                         Temperature (°C)  =  25.00
                  Electrical balance (eq)  =  -1.757e-05
 Percent error, 100*(Cat-|An|)/(Cat+|An|)  =  -0.00
                               Iterations  =   8
                                  Total H  = 1.110138e+02
                                  Total O  = 5.550683e+01

----------------------------Distribution of species----------------------------

                                               Log       Log       Log    mole V
   Species          Molality    Activity  Molality  Activity     Gamma   cm³/mol

   H+              3.366e-05   2.512e-05    -4.473    -4.600    -0.127      0.00
   OH-             5.634e-10   3.981e-10    -9.249    -9.400    -0.151     (0)  
   H2O             5.551e+01   9.932e-01     1.744    -0.003     0.000     18.07
Cl            2.000e-01
   Cl-             2.000e-01   1.492e-01    -0.699    -0.826    -0.127     (0)  
   ZnCl+           2.008e-05   1.442e-05    -4.697    -4.841    -0.144     (0)  
   ZnCl2           3.410e-06   3.410e-06    -5.467    -5.467     0.000     (0)  
   ZnCl3-          5.629e-07   4.043e-07    -6.250    -6.393    -0.144     (0)  
   ZnCl4-2         1.014e-07   3.017e-08    -6.994    -7.520    -0.526     (0)  
   ZnOHCl          7.515e-09   7.515e-09    -8.124    -8.124     0.000     (0)  
H(0)          8.530e-21
   H2              4.265e-21   4.467e-21   -20.370   -20.350     0.020     (0)  
Na            2.000e-01
   Na+             2.000e-01   1.493e-01    -0.699    -0.826    -0.127     (0)  
Nta           2.000e-04
   H(Nta)-2        1.474e-04   1.799e-05    -3.831    -4.745    -0.914     (0)  
   Zn(Nta)-        5.188e-05   3.872e-05    -4.285    -4.412    -0.127     (0)  
   H2(Nta)-        6.689e-07   3.953e-07    -6.175    -6.403    -0.228     (0)  
   H3(Nta)         9.930e-10   9.930e-10    -9.003    -9.003     0.000     (0)  
   Zn(Nta)2-4      7.764e-10   7.192e-12    -9.110   -11.143    -2.033     (0)  
   Nta-3           5.256e-10   3.775e-11    -9.279   -10.423    -1.144     (0)  
   ZnOH(Nta)-2     5.144e-10   1.596e-10    -9.289    -9.797    -0.508     (0)  
   H4(Nta)+        4.221e-13   2.494e-13   -12.375   -12.603    -0.228     (0)  
O(0)          0.000e+00
   O2              0.000e+00   0.000e+00   -51.621   -51.601     0.020     (0)  
Zn            2.000e-04
   Zn+2            1.240e-04   3.846e-05    -3.907    -4.415    -0.508     (0)  
   Zn(Nta)-        5.188e-05   3.872e-05    -4.285    -4.412    -0.127     (0)  
   ZnCl+           2.008e-05   1.442e-05    -4.697    -4.841    -0.144     (0)  
   ZnCl2           3.410e-06   3.410e-06    -5.467    -5.467     0.000     (0)  
   ZnCl3-          5.629e-07   4.043e-07    -6.250    -6.393    -0.144     (0)  
   ZnCl4-2         1.014e-07   3.017e-08    -6.994    -7.520    -0.526     (0)  
   ZnOHCl          7.515e-09   7.515e-09    -8.124    -8.124     0.000     (0)  
   ZnOH+           2.591e-09   1.531e-09    -8.587    -8.815    -0.228     (0)  
   Zn(Nta)2-4      7.764e-10   7.192e-12    -9.110   -11.143    -2.033     (0)  
   ZnOH(Nta)-2     5.144e-10   1.596e-10    -9.289    -9.797    -0.508     (0)  
   Zn(OH)2         9.662e-14   9.662e-14   -13.015   -13.015     0.000     (0)  
   Zn(OH)3-        3.262e-19   1.928e-19   -18.486   -18.715    -0.228     (0)  
   Zn(OH)4-2       2.505e-26   3.056e-27   -25.601   -26.515    -0.914     (0)  

------------------------------Saturation indices-------------------------------

  Phase               SI** log IAP   log K(298 K,   1 atm)

  Halite           -3.25     -1.65    1.60  NaCl
  O2(g)           -48.70     34.39   83.09  O2
  Zincite          -6.55      4.78   11.33  ZnO
  Zn(OH)2          -7.42      4.78   12.20  Zn(OH)2
  Zn(OH)2(am)      -7.69      4.78   12.47  Zn(OH)2
  Zn(OH)2(beta)    -6.97      4.78   11.75  Zn(OH)2
  Zn(OH)2(epsilon)  -6.75      4.78   11.53  Zn(OH)2
  Zn(OH)2(gamma)   -6.95      4.78   11.73  Zn(OH)2
  Zn2(OH)3Cl      -11.06      4.13   15.19  Zn2(OH)3Cl
  Zn5(OH)8Cl2     -25.45     13.05   38.50  Zn5(OH)8Cl2
  ZnCl2           -13.12     -6.07    7.05  ZnCl2
  Znmetal         -38.20    -12.42   25.79  Zn
  ZnO(active)      -6.41      4.78   11.19  ZnO

**For a gas, SI = log10(fugacity). Fugacity = pressure * phi / 1 atm.
  For ideal gases, phi = 1.

------------------
End of simulation.
------------------

-------------------------------------
Reading input data for simulation 12.
-------------------------------------

	SOLUTION 10
	pH		4.8
	Cl		0.2		mol/kgw
	Na		0.2		mol/kgw
	Zn	0.200 	mmol/kgw
	Nta  0.200 	mmol/kgw
	END
-------------------------------------------
Beginning of initial solution calculations.
-------------------------------------------

Initial solution 10.	

-----------------------------Solution composition------------------------------

	Elements           Molality       Moles

	Cl                2.000e-01   2.000e-01
	Na                2.000e-01   2.000e-01
	Nta               2.000e-04   2.000e-04
	Zn                2.000e-04   2.000e-04

----------------------------Description of solution----------------------------

                                       pH  =   4.800    
                                       pe  =   4.000    
                        Activity of water  =   0.993
                 Ionic strength (mol/kgw)  =   2.005e-01
                       Mass of water (kg)  =   1.000e+00
                 Total alkalinity (eq/kg)  =   4.511e-05
                         Temperature (°C)  =  25.00
                  Electrical balance (eq)  =  -4.511e-05
 Percent error, 100*(Cat-|An|)/(Cat+|An|)  =  -0.01
                               Iterations  =   9
                                  Total H  = 1.110138e+02
                                  Total O  = 5.550683e+01

----------------------------Distribution of species----------------------------

                                               Log       Log       Log    mole V
   Species          Molality    Activity  Molality  Activity     Gamma   cm³/mol

   H+              2.124e-05   1.585e-05    -4.673    -4.800    -0.127      0.00
   OH-             8.929e-10   6.310e-10    -9.049    -9.200    -0.151     (0)  
   H2O             5.551e+01   9.932e-01     1.744    -0.003     0.000     18.07
Cl            2.000e-01
   Cl-             2.000e-01   1.492e-01    -0.699    -0.826    -0.127     (0)  
   ZnCl+           1.807e-05   1.297e-05    -4.743    -4.887    -0.144     (0)  
   ZnCl2           3.069e-06   3.069e-06    -5.513    -5.513     0.000     (0)  
   ZnCl3-          5.066e-07   3.638e-07    -6.295    -6.439    -0.144     (0)  
   ZnCl4-2         9.124e-08   2.715e-08    -7.040    -7.566    -0.526     (0)  
   ZnOHCl          1.072e-08   1.072e-08    -7.970    -7.970     0.000     (0)  
H(0)          3.396e-21
   H2              1.698e-21   1.778e-21   -20.770   -20.750     0.020     (0)  
Na            2.000e-01
   Na+             2.000e-01   1.493e-01    -0.699    -0.826    -0.127     (0)  
Nta           2.000e-04
   H(Nta)-2        1.329e-04   1.622e-05    -3.876    -4.790    -0.914     (0)  
   Zn(Nta)-        6.671e-05   4.979e-05    -4.176    -4.303    -0.127     (0)  
   H2(Nta)-        3.805e-07   2.249e-07    -6.420    -6.648    -0.228     (0)  
   Zn(Nta)2-4      1.426e-09   1.322e-11    -8.846   -10.879    -2.033     (0)  
   ZnOH(Nta)-2     1.048e-09   3.252e-10    -8.980    -9.488    -0.508     (0)  
   Nta-3           7.509e-10   5.395e-11    -9.124   -10.268    -1.144     (0)  
   H3(Nta)         3.564e-10   3.564e-10    -9.448    -9.448     0.000     (0)  
   H4(Nta)+        9.558e-14   5.649e-14   -13.020   -13.248    -0.228     (0)  
O(0)          0.000e+00
   O2              0.000e+00   0.000e+00   -50.821   -50.801     0.020     (0)  
Zn            2.000e-04
   Zn+2            1.115e-04   3.461e-05    -3.953    -4.461    -0.508     (0)  
   Zn(Nta)-        6.671e-05   4.979e-05    -4.176    -4.303    -0.127     (0)  
   ZnCl+           1.807e-05   1.297e-05    -4.743    -4.887    -0.144     (0)  
   ZnCl2           3.069e-06   3.069e-06    -5.513    -5.513     0.000     (0)  
   ZnCl3-          5.066e-07   3.638e-07    -6.295    -6.439    -0.144     (0)  
   ZnCl4-2         9.124e-08   2.715e-08    -7.040    -7.566    -0.526     (0)  
   ZnOHCl          1.072e-08   1.072e-08    -7.970    -7.970     0.000     (0)  
   ZnOH+           3.695e-09   2.184e-09    -8.432    -8.661    -0.228     (0)  
   Zn(Nta)2-4      1.426e-09   1.322e-11    -8.846   -10.879    -2.033     (0)  
   ZnOH(Nta)-2     1.048e-09   3.252e-10    -8.980    -9.488    -0.508     (0)  
   Zn(OH)2         2.184e-13   2.184e-13   -12.661   -12.661     0.000     (0)  
   Zn(OH)3-        1.169e-18   6.907e-19   -17.932   -18.161    -0.228     (0)  
   Zn(OH)4-2       1.422e-25   1.735e-26   -24.847   -25.761    -0.914     (0)  

------------------------------Saturation indices-------------------------------

  Phase               SI** log IAP   log K(298 K,   1 atm)

  Halite           -3.25     -1.65    1.60  NaCl
  O2(g)           -47.90     35.19   83.09  O2
  Zincite          -6.20      5.14   11.33  ZnO
  Zn(OH)2          -7.07      5.13   12.20  Zn(OH)2
  Zn(OH)2(am)      -7.34      5.13   12.47  Zn(OH)2
  Zn(OH)2(beta)    -6.62      5.13   11.75  Zn(OH)2
  Zn(OH)2(epsilon)  -6.40      5.13   11.53  Zn(OH)2
  Zn(OH)2(gamma)   -6.60      5.13   11.73  Zn(OH)2
  Zn2(OH)3Cl      -10.55      4.64   15.19  Zn2(OH)3Cl
  Zn5(OH)8Cl2     -24.08     14.42   38.50  Zn5(OH)8Cl2
  ZnCl2           -13.16     -6.11    7.05  ZnCl2
  Znmetal         -38.25    -12.46   25.79  Zn
  ZnO(active)      -6.05      5.14   11.19  ZnO

**For a gas, SI = log10(fugacity). Fugacity = pressure * phi / 1 atm.
  For ideal gases, phi = 1.

------------------
End of simulation.
------------------

-------------------------------------
Reading input data for simulation 13.
-------------------------------------

	SOLUTION 11
	pH		5.0
	Cl		0.2		mol/kgw
	Na		0.2		mol/kgw
	Zn	0.200 	mmol/kgw
	Nta  0.200 	mmol/kgw
	END
-------------------------------------------
Beginning of initial solution calculations.
-------------------------------------------

Initial solution 11.	

-----------------------------Solution composition------------------------------

	Elements           Molality       Moles

	Cl                2.000e-01   2.000e-01
	Na                2.000e-01   2.000e-01
	Nta               2.000e-04   2.000e-04
	Zn                2.000e-04   2.000e-04

----------------------------Description of solution----------------------------

                                       pH  =   5.000    
                                       pe  =   4.000    
                        Activity of water  =   0.993
                 Ionic strength (mol/kgw)  =   2.005e-01
                       Mass of water (kg)  =   1.000e+00
                 Total alkalinity (eq/kg)  =   6.882e-05
                         Temperature (°C)  =  25.00
                  Electrical balance (eq)  =  -6.882e-05
 Percent error, 100*(Cat-|An|)/(Cat+|An|)  =  -0.02
                               Iterations  =  10
                                  Total H  = 1.110138e+02
                                  Total O  = 5.550683e+01

----------------------------Distribution of species----------------------------

                                               Log       Log       Log    mole V
   Species          Molality    Activity  Molality  Activity     Gamma   cm³/mol

   H+              1.340e-05   1.000e-05    -4.873    -5.000    -0.127      0.00
   OH-             1.415e-09   1.000e-09    -8.849    -9.000    -0.151     (0)  
   H2O             5.551e+01   9.932e-01     1.744    -0.003     0.000     18.07
Cl            2.000e-01
   Cl-             2.000e-01   1.493e-01    -0.699    -0.826    -0.127     (0)  
   ZnCl+           1.594e-05   1.145e-05    -4.798    -4.941    -0.144     (0)  
   ZnCl2           2.708e-06   2.708e-06    -5.567    -5.567     0.000     (0)  
   ZnCl3-          4.470e-07   3.210e-07    -6.350    -6.493    -0.144     (0)  
   ZnCl4-2         8.050e-08   2.396e-08    -7.094    -7.621    -0.526     (0)  
   ZnOHCl          1.499e-08   1.499e-08    -7.824    -7.824     0.000     (0)  
H(0)          1.352e-21
   H2              6.760e-22   7.079e-22   -21.170   -21.150     0.020     (0)  
Na            2.000e-01
   Na+             2.000e-01   1.493e-01    -0.699    -0.826    -0.127     (0)  
Nta           2.000e-04
   H(Nta)-2        1.174e-04   1.433e-05    -3.930    -4.844    -0.913     (0)  
   Zn(Nta)-        8.240e-05   6.150e-05    -4.084    -4.211    -0.127     (0)  
   H2(Nta)-        2.121e-07   1.254e-07    -6.674    -6.902    -0.228     (0)  
   Zn(Nta)2-4      2.466e-09   2.286e-11    -8.608   -10.641    -2.033     (0)  
   ZnOH(Nta)-2     2.052e-09   6.367e-10    -8.688    -9.196    -0.508     (0)  
   Nta-3           1.051e-09   7.553e-11    -8.978   -10.122    -1.144     (0)  
   H3(Nta)         1.254e-10   1.254e-10    -9.902    -9.902     0.000     (0)  
   H4(Nta)+        2.121e-14   1.254e-14   -13.674   -13.902    -0.228     (0)  
O(0)          0.000e+00
   O2              0.000e+00   0.000e+00   -50.021   -50.001     0.020     (0)  
Zn            2.000e-04
   Zn+2            9.840e-05   3.053e-05    -4.007    -4.515    -0.508     (0)  
   Zn(Nta)-        8.240e-05   6.150e-05    -4.084    -4.211    -0.127     (0)  
   ZnCl+           1.594e-05   1.145e-05    -4.798    -4.941    -0.144     (0)  
   ZnCl2           2.708e-06   2.708e-06    -5.567    -5.567     0.000     (0)  
   ZnCl3-          4.470e-07   3.210e-07    -6.350    -6.493    -0.144     (0)  
   ZnCl4-2         8.050e-08   2.396e-08    -7.094    -7.621    -0.526     (0)  
   ZnOHCl          1.499e-08   1.499e-08    -7.824    -7.824     0.000     (0)  
   ZnOH+           5.166e-09   3.053e-09    -8.287    -8.515    -0.228     (0)  
   Zn(Nta)2-4      2.466e-09   2.286e-11    -8.608   -10.641    -2.033     (0)  
   ZnOH(Nta)-2     2.052e-09   6.367e-10    -8.688    -9.196    -0.508     (0)  
   Zn(OH)2         4.840e-13   4.840e-13   -12.315   -12.315     0.000     (0)  
   Zn(OH)3-        4.104e-18   2.426e-18   -17.387   -17.615    -0.228     (0)  
   Zn(OH)4-2       7.913e-25   9.658e-26   -24.102   -25.015    -0.913     (0)  

------------------------------Saturation indices-------------------------------

  Phase               SI** log IAP   log K(298 K,   1 atm)

  Halite           -3.25     -1.65    1.60  NaCl
  O2(g)           -47.10     35.99   83.09  O2
  Zincite          -5.85      5.48   11.33  ZnO
  Zn(OH)2          -6.72      5.48   12.20  Zn(OH)2
  Zn(OH)2(am)      -7.00      5.48   12.47  Zn(OH)2
  Zn(OH)2(beta)    -6.28      5.48   11.75  Zn(OH)2
  Zn(OH)2(epsilon)  -6.06      5.48   11.53  Zn(OH)2
  Zn(OH)2(gamma)   -6.26      5.48   11.73  Zn(OH)2
  Zn2(OH)3Cl      -10.06      5.13   15.19  Zn2(OH)3Cl
  Zn5(OH)8Cl2     -22.75     15.75   38.50  Zn5(OH)8Cl2
  ZnCl2           -13.22     -6.17    7.05  ZnCl2
  Znmetal         -38.30    -12.52   25.79  Zn
  ZnO(active)      -5.71      5.48   11.19  ZnO

**For a gas, SI = log10(fugacity). Fugacity = pressure * phi / 1 atm.
  For ideal gases, phi = 1.

------------------
End of simulation.
------------------

-------------------------------------
Reading input data for simulation 14.
-------------------------------------

	SOLUTION 12
	pH		5.2
	Cl		0.2		mol/kgw
	Na		0.2		mol/kgw
	Zn	0.200 	mmol/kgw
	Nta  0.200 	mmol/kgw
	END
-------------------------------------------
Beginning of initial solution calculations.
-------------------------------------------

Initial solution 12.	

-----------------------------Solution composition------------------------------

	Elements           Molality       Moles

	Cl                2.000e-01   2.000e-01
	Na                2.000e-01   2.000e-01
	Nta               2.000e-04   2.000e-04
	Zn                2.000e-04   2.000e-04

----------------------------Description of solution----------------------------

                                       pH  =   5.200    
                                       pe  =   4.000    
                        Activity of water  =   0.993
                 Ionic strength (mol/kgw)  =   2.004e-01
                       Mass of water (kg)  =   1.000e+00
                 Total alkalinity (eq/kg)  =   8.959e-05
                         Temperature (°C)  =  25.00
                  Electrical balance (eq)  =  -8.959e-05
 Percent error, 100*(Cat-|An|)/(Cat+|An|)  =  -0.02
                               Iterations  =  10
                                  Total H  = 1.110138e+02
                                  Total O  = 5.550683e+01

----------------------------Distribution of species----------------------------

                                               Log       Log       Log    mole V
   Species          Molality    Activity  Molality  Activity     Gamma   cm³/mol

   H+              8.454e-06   6.310e-06    -5.073    -5.200    -0.127      0.00
   OH-             2.243e-09   1.585e-09    -8.649    -8.800    -0.151     (0)  
   H2O             5.551e+01   9.932e-01     1.744    -0.003     0.000     18.07
Cl            2.000e-01
   Cl-             2.000e-01   1.493e-01    -0.699    -0.826    -0.127     (0)  
   ZnCl+           1.381e-05   9.917e-06    -4.860    -5.004    -0.144     (0)  
   ZnCl2           2.346e-06   2.346e-06    -5.630    -5.630     0.000     (0)  
   ZnCl3-          3.872e-07   2.781e-07    -6.412    -6.556    -0.144     (0)  
   ZnCl4-2         6.974e-08   2.076e-08    -7.157    -7.683    -0.526     (0)  
   ZnOHCl          2.058e-08   2.058e-08    -7.687    -7.687     0.000     (0)  
H(0)          5.383e-22
   H2              2.691e-22   2.818e-22   -21.570   -21.550     0.020     (0)  
Na            2.000e-01
   Na+             2.000e-01   1.493e-01    -0.699    -0.826    -0.127     (0)  
Nta           2.000e-04
   H(Nta)-2        1.018e-04   1.242e-05    -3.992    -4.906    -0.913     (0)  
   Zn(Nta)-        9.811e-05   7.323e-05    -4.008    -4.135    -0.127     (0)  
   H2(Nta)-        1.160e-07   6.859e-08    -6.935    -7.164    -0.228     (0)  
   Zn(Nta)2-4      4.035e-09   3.740e-11    -8.394   -10.427    -2.033     (0)  
   ZnOH(Nta)-2     3.872e-09   1.201e-09    -8.412    -8.920    -0.508     (0)  
   Nta-3           1.445e-09   1.038e-10    -8.840    -9.984    -1.143     (0)  
   H3(Nta)         4.328e-11   4.328e-11   -10.364   -10.364     0.000     (0)  
   H4(Nta)+        4.619e-15   2.730e-15   -14.335   -14.564    -0.228     (0)  
O(0)          0.000e+00
   O2              0.000e+00   0.000e+00   -49.221   -49.201     0.020     (0)  
Zn            2.000e-04
   Zn(Nta)-        9.811e-05   7.323e-05    -4.008    -4.135    -0.127     (0)  
   Zn+2            8.524e-05   2.645e-05    -4.069    -4.578    -0.508     (0)  
   ZnCl+           1.381e-05   9.917e-06    -4.860    -5.004    -0.144     (0)  
   ZnCl2           2.346e-06   2.346e-06    -5.630    -5.630     0.000     (0)  
   ZnCl3-          3.872e-07   2.781e-07    -6.412    -6.556    -0.144     (0)  
   ZnCl4-2         6.974e-08   2.076e-08    -7.157    -7.683    -0.526     (0)  
   ZnOHCl          2.058e-08   2.058e-08    -7.687    -7.687     0.000     (0)  
   ZnOH+           7.092e-09   4.192e-09    -8.149    -8.378    -0.228     (0)  
   Zn(Nta)2-4      4.035e-09   3.740e-11    -8.394   -10.427    -2.033     (0)  
   ZnOH(Nta)-2     3.872e-09   1.201e-09    -8.412    -8.920    -0.508     (0)  
   Zn(OH)2         1.053e-12   1.053e-12   -11.978   -11.978     0.000     (0)  
   Zn(OH)3-        1.415e-17   8.366e-18   -16.849   -17.077    -0.228     (0)  
   Zn(OH)4-2       4.324e-24   5.279e-25   -23.364   -24.277    -0.913     (0)  

------------------------------Saturation indices-------------------------------

  Phase               SI** log IAP   log K(298 K,   1 atm)

  Halite           -3.25     -1.65    1.60  NaCl
  O2(g)           -46.30     36.79   83.09  O2
  Zincite          -5.51      5.82   11.33  ZnO
  Zn(OH)2          -6.38      5.82   12.20  Zn(OH)2
  Zn(OH)2(am)      -6.66      5.82   12.47  Zn(OH)2
  Zn(OH)2(beta)    -5.94      5.82   11.75  Zn(OH)2
  Zn(OH)2(epsilon)  -5.72      5.82   11.53  Zn(OH)2
  Zn(OH)2(gamma)   -5.92      5.82   11.73  Zn(OH)2
  Zn2(OH)3Cl       -9.58      5.61   15.19  Zn2(OH)3Cl
  Zn5(OH)8Cl2     -21.46     17.04   38.50  Zn5(OH)8Cl2
  ZnCl2           -13.28     -6.23    7.05  ZnCl2
  Znmetal         -38.37    -12.58   25.79  Zn
  ZnO(active)      -5.37      5.82   11.19  ZnO

**For a gas, SI = log10(fugacity). Fugacity = pressure * phi / 1 atm.
  For ideal gases, phi = 1.

------------------
End of simulation.
------------------

-------------------------------------
Reading input data for simulation 15.
-------------------------------------

	SOLUTION 13
	pH		5.4
	Cl		0.2		mol/kgw
	Na		0.2		mol/kgw
	Zn	0.200 	mmol/kgw
	Nta  0.200 	mmol/kgw
	END
-------------------------------------------
Beginning of initial solution calculations.
-------------------------------------------

Initial solution 13.	

-----------------------------Solution composition------------------------------

	Elements           Molality       Moles

	Cl                2.000e-01   2.000e-01
	Na                2.000e-01   2.000e-01
	Nta               2.000e-04   2.000e-04
	Zn                2.000e-04   2.000e-04

----------------------------Description of solution----------------------------

                                       pH  =   5.400    
                                       pe  =   4.000    
                        Activity of water  =   0.993
                 Ionic strength (mol/kgw)  =   2.004e-01
                       Mass of water (kg)  =   1.000e+00
                 Total alkalinity (eq/kg)  =   1.078e-04
                         Temperature (°C)  =  25.00
                  Electrical balance (eq)  =  -1.078e-04
 Percent error, 100*(Cat-|An|)/(Cat+|An|)  =  -0.03
                               Iterations  =  10
                                  Total H  = 1.110138e+02
                                  Total O  = 5.550683e+01

----------------------------Distribution of species----------------------------

                                               Log       Log       Log    mole V
   Species          Molality    Activity  Molality  Activity     Gamma   cm³/mol

   H+              5.334e-06   3.981e-06    -5.273    -5.400    -0.127      0.00
   OH-             3.554e-09   2.512e-09    -8.449    -8.600    -0.151     (0)  
   H2O             5.551e+01   9.932e-01     1.744    -0.003     0.000     18.07
Cl            2.000e-01
   Cl-             2.000e-01   1.493e-01    -0.699    -0.826    -0.127     (0)  
   ZnCl+           1.177e-05   8.455e-06    -4.929    -5.073    -0.144     (0)  
   ZnCl2           2.000e-06   2.000e-06    -5.699    -5.699     0.000     (0)  
   ZnCl3-          3.302e-07   2.371e-07    -6.481    -6.625    -0.144     (0)  
   ZnCl4-2         5.946e-08   1.770e-08    -7.226    -7.752    -0.526     (0)  
   ZnOHCl          2.781e-08   2.781e-08    -7.556    -7.556     0.000     (0)  
H(0)          2.143e-22
   H2              1.071e-22   1.122e-22   -21.970   -21.950     0.020     (0)  
Na            2.000e-01
   Na+             2.000e-01   1.493e-01    -0.699    -0.826    -0.127     (0)  
Nta           2.000e-04
   Zn(Nta)-        1.131e-04   8.443e-05    -3.946    -4.074    -0.127     (0)  
   H(Nta)-2        8.680e-05   1.060e-05    -4.061    -4.975    -0.913     (0)  
   H2(Nta)-        6.246e-08   3.692e-08    -7.204    -7.433    -0.228     (0)  
   ZnOH(Nta)-2     7.075e-09   2.195e-09    -8.150    -8.658    -0.508     (0)  
   Zn(Nta)2-4      6.289e-09   5.831e-11    -8.201   -10.234    -2.033     (0)  
   Nta-3           1.953e-09   1.404e-10    -8.709    -9.853    -1.143     (0)  
   H3(Nta)         1.470e-11   1.470e-11   -10.833   -10.833     0.000     (0)  
   H4(Nta)+        9.899e-16   5.852e-16   -15.004   -15.233    -0.228     (0)  
O(0)          0.000e+00
   O2              0.000e+00   0.000e+00   -48.421   -48.401     0.020     (0)  
Zn            2.000e-04
   Zn(Nta)-        1.131e-04   8.443e-05    -3.946    -4.074    -0.127     (0)  
   Zn+2            7.267e-05   2.255e-05    -4.139    -4.647    -0.508     (0)  
   ZnCl+           1.177e-05   8.455e-06    -4.929    -5.073    -0.144     (0)  
   ZnCl2           2.000e-06   2.000e-06    -5.699    -5.699     0.000     (0)  
   ZnCl3-          3.302e-07   2.371e-07    -6.481    -6.625    -0.144     (0)  
   ZnCl4-2         5.946e-08   1.770e-08    -7.226    -7.752    -0.526     (0)  
   ZnOHCl          2.781e-08   2.781e-08    -7.556    -7.556     0.000     (0)  
   ZnOH+           9.583e-09   5.665e-09    -8.018    -8.247    -0.228     (0)  
   ZnOH(Nta)-2     7.075e-09   2.195e-09    -8.150    -8.658    -0.508     (0)  
   Zn(Nta)2-4      6.289e-09   5.831e-11    -8.201   -10.234    -2.033     (0)  
   Zn(OH)2         2.255e-12   2.255e-12   -11.647   -11.647     0.000     (0)  
   Zn(OH)3-        4.804e-17   2.840e-17   -16.318   -16.547    -0.228     (0)  
   Zn(OH)4-2       2.326e-23   2.840e-24   -22.633   -23.547    -0.913     (0)  

------------------------------Saturation indices-------------------------------

  Phase               SI** log IAP   log K(298 K,   1 atm)

  Halite           -3.25     -1.65    1.60  NaCl
  O2(g)           -45.50     37.59   83.09  O2
  Zincite          -5.18      6.15   11.33  ZnO
  Zn(OH)2          -6.05      6.15   12.20  Zn(OH)2
  Zn(OH)2(am)      -6.33      6.15   12.47  Zn(OH)2
  Zn(OH)2(beta)    -5.61      6.15   11.75  Zn(OH)2
  Zn(OH)2(epsilon)  -5.39      6.15   11.53  Zn(OH)2
  Zn(OH)2(gamma)   -5.59      6.15   11.73  Zn(OH)2
  Zn2(OH)3Cl       -9.12      6.07   15.19  Zn2(OH)3Cl
  Zn5(OH)8Cl2     -20.21     18.29   38.50  Zn5(OH)8Cl2
  ZnCl2           -13.35     -6.30    7.05  ZnCl2
  Znmetal         -38.44    -12.65   25.79  Zn
  ZnO(active)      -5.04      6.15   11.19  ZnO

**For a gas, SI = log10(fugacity). Fugacity = pressure * phi / 1 atm.
  For ideal gases, phi = 1.

------------------
End of simulation.
------------------

-------------------------------------
Reading input data for simulation 16.
-------------------------------------

	SOLUTION 14
	pH		5.6
	Cl		0.2		mol/kgw
	Na		0.2		mol/kgw
	Zn	0.200 	mmol/kgw
	Nta  0.200 	mmol/kgw
	END
-------------------------------------------
Beginning of initial solution calculations.
-------------------------------------------

Initial solution 14.	

-----------------------------Solution composition------------------------------

	Elements           Molality       Moles

	Cl                2.000e-01   2.000e-01
	Na                2.000e-01   2.000e-01
	Nta               2.000e-04   2.000e-04
	Zn                2.000e-04   2.000e-04

----------------------------Description of solution----------------------------

                                       pH  =   5.600    
                                       pe  =   4.000    
                        Activity of water  =   0.993
                 Ionic strength (mol/kgw)  =   2.003e-01
                       Mass of water (kg)  =   1.000e+00
                 Total alkalinity (eq/kg)  =   1.236e-04
                         Temperature (°C)  =  25.00
                  Electrical balance (eq)  =  -1.236e-04
 Percent error, 100*(Cat-|An|)/(Cat+|An|)  =  -0.03
                               Iterations  =  10
                                  Total H  = 1.110137e+02
                                  Total O  = 5.550683e+01

----------------------------Distribution of species----------------------------

                                               Log       Log       Log    mole V
   Species          Molality    Activity  Molality  Activity     Gamma   cm³/mol

   H+              3.365e-06   2.512e-06    -5.473    -5.600    -0.127      0.00
   OH-             5.633e-09   3.981e-09    -8.249    -8.400    -0.151     (0)  
   H2O             5.551e+01   9.932e-01     1.744    -0.003     0.000     18.07
Cl            2.000e-01
   Cl-             2.000e-01   1.493e-01    -0.699    -0.826    -0.127     (0)  
   ZnCl+           9.901e-06   7.111e-06    -5.004    -5.148    -0.144     (0)  
   ZnCl2           1.682e-06   1.682e-06    -5.774    -5.774     0.000     (0)  
   ZnCl3-          2.777e-07   1.995e-07    -6.556    -6.700    -0.144     (0)  
   ZnCl4-2         5.001e-08   1.489e-08    -7.301    -7.827    -0.526     (0)  
   ZnOHCl          3.707e-08   3.707e-08    -7.431    -7.431     0.000     (0)  
H(0)          8.531e-23
   H2              4.265e-23   4.467e-23   -22.370   -22.350     0.020     (0)  
Na            2.000e-01
   Na+             2.000e-01   1.493e-01    -0.699    -0.826    -0.127     (0)  
Nta           2.000e-04
   Zn(Nta)-        1.269e-04   9.471e-05    -3.897    -4.024    -0.127     (0)  
   H(Nta)-2        7.303e-05   8.921e-06    -4.136    -5.050    -0.913     (0)  
   H2(Nta)-        3.317e-08   1.961e-08    -7.479    -7.708    -0.228     (0)  
   ZnOH(Nta)-2     1.258e-08   3.903e-09    -7.900    -8.409    -0.508     (0)  
   Zn(Nta)2-4      9.409e-09   8.726e-11    -8.026   -10.059    -2.033     (0)  
   Nta-3           2.605e-09   1.872e-10    -8.584    -9.728    -1.143     (0)  
   H3(Nta)         4.925e-12   4.925e-12   -11.308   -11.308     0.000     (0)  
   H4(Nta)+        2.093e-16   1.237e-16   -15.679   -15.908    -0.228     (0)  
O(0)          0.000e+00
   O2              0.000e+00   0.000e+00   -47.621   -47.601     0.020     (0)  
Zn            2.000e-04
   Zn(Nta)-        1.269e-04   9.471e-05    -3.897    -4.024    -0.127     (0)  
   Zn+2            6.112e-05   1.897e-05    -4.214    -4.722    -0.508     (0)  
   ZnCl+           9.901e-06   7.111e-06    -5.004    -5.148    -0.144     (0)  
   ZnCl2           1.682e-06   1.682e-06    -5.774    -5.774     0.000     (0)  
   ZnCl3-          2.777e-07   1.995e-07    -6.556    -6.700    -0.144     (0)  
   ZnCl4-2         5.001e-08   1.489e-08    -7.301    -7.827    -0.526     (0)  
   ZnOHCl          3.707e-08   3.707e-08    -7.431    -7.431     0.000     (0)  
   ZnOH+           1.277e-08   7.551e-09    -7.894    -8.122    -0.228     (0)  
   ZnOH(Nta)-2     1.258e-08   3.903e-09    -7.900    -8.409    -0.508     (0)  
   Zn(Nta)2-4      9.409e-09   8.726e-11    -8.026   -10.059    -2.033     (0)  
   Zn(OH)2         4.765e-12   4.765e-12   -11.322   -11.322     0.000     (0)  
   Zn(OH)3-        1.608e-16   9.508e-17   -15.794   -16.022    -0.228     (0)  
   Zn(OH)4-2       1.234e-22   1.507e-23   -21.909   -22.822    -0.913     (0)  

------------------------------Saturation indices-------------------------------

  Phase               SI** log IAP   log K(298 K,   1 atm)

  Halite           -3.25     -1.65    1.60  NaCl
  O2(g)           -44.70     38.39   83.09  O2
  Zincite          -4.86      6.48   11.33  ZnO
  Zn(OH)2          -5.73      6.47   12.20  Zn(OH)2
  Zn(OH)2(am)      -6.00      6.47   12.47  Zn(OH)2
  Zn(OH)2(beta)    -5.28      6.47   11.75  Zn(OH)2
  Zn(OH)2(epsilon)  -5.06      6.47   11.53  Zn(OH)2
  Zn(OH)2(gamma)   -5.26      6.47   11.73  Zn(OH)2
  Zn2(OH)3Cl       -8.67      6.52   15.19  Zn2(OH)3Cl
  Zn5(OH)8Cl2     -18.99     19.51   38.50  Zn5(OH)8Cl2
  ZnCl2           -13.42     -6.37    7.05  ZnCl2
  Znmetal         -38.51    -12.72   25.79  Zn
  ZnO(active)      -4.71      6.48   11.19  ZnO

**For a gas, SI = log10(fugacity). Fugacity = pressure * phi / 1 atm.
  For ideal gases, phi = 1.

------------------
End of simulation.
------------------

-------------------------------------
Reading input data for simulation 17.
-------------------------------------

	SOLUTION 15
	pH		5.8
	Cl		0.2		mol/kgw
	Na		0.2		mol/kgw
	Zn	0.200 	mmol/kgw
	Nta  0.200 	mmol/kgw
	END
-------------------------------------------
Beginning of initial solution calculations.
-------------------------------------------

Initial solution 15.	

-----------------------------Solution composition------------------------------

	Elements           Molality       Moles

	Cl                2.000e-01   2.000e-01
	Na                2.000e-01   2.000e-01
	Nta               2.000e-04   2.000e-04
	Zn                2.000e-04   2.000e-04

----------------------------Description of solution----------------------------

                                       pH  =   5.800    
                                       pe  =   4.000    
                        Activity of water  =   0.993
                 Ionic strength (mol/kgw)  =   2.003e-01
                       Mass of water (kg)  =   1.000e+00
                 Total alkalinity (eq/kg)  =   1.372e-04
                         Temperature (°C)  =  25.00
                  Electrical balance (eq)  =  -1.372e-04
 Percent error, 100*(Cat-|An|)/(Cat+|An|)  =  -0.03
                               Iterations  =  10
                                  Total H  = 1.110137e+02
                                  Total O  = 5.550683e+01

----------------------------Distribution of species----------------------------

                                               Log       Log       Log    mole V
   Species          Molality    Activity  Molality  Activity     Gamma   cm³/mol

   H+              2.123e-06   1.585e-06    -5.673    -5.800    -0.127      0.00
   OH-             8.928e-09   6.310e-09    -8.049    -8.200    -0.151     (0)  
   H2O             5.551e+01   9.932e-01     1.744    -0.003     0.000     18.07
Cl            2.000e-01
   Cl-             2.000e-01   1.493e-01    -0.699    -0.826    -0.127     (0)  
   ZnCl+           8.234e-06   5.914e-06    -5.084    -5.228    -0.144     (0)  
   ZnCl2           1.399e-06   1.399e-06    -5.854    -5.854     0.000     (0)  
   ZnCl3-          2.310e-07   1.659e-07    -6.636    -6.780    -0.144     (0)  
   ZnOHCl          4.885e-08   4.885e-08    -7.311    -7.311     0.000     (0)  
   ZnCl4-2         4.159e-08   1.238e-08    -7.381    -7.907    -0.526     (0)  
H(0)          3.396e-23
   H2              1.698e-23   1.778e-23   -22.770   -22.750     0.020     (0)  
Na            2.000e-01
   Na+             2.000e-01   1.493e-01    -0.699    -0.826    -0.127     (0)  
Nta           2.000e-04
   Zn(Nta)-        1.392e-04   1.039e-04    -3.856    -3.983    -0.127     (0)  
[...]
   ZnOHCl          1.389e-06   1.389e-06    -5.857    -5.857     0.000     (0)  
   ZnCl+           5.881e-08   4.224e-08    -7.231    -7.374    -0.144     (0)  
   ZnCl2           9.994e-09   9.994e-09    -8.000    -8.000     0.000     (0)  
   ZnCl3-          1.650e-09   1.185e-09    -8.783    -8.926    -0.144     (0)  
   ZnCl4-2         2.971e-10   8.846e-11    -9.527   -10.053    -0.526     (0)  
H(0)          2.143e-30
   H2              1.071e-30   1.122e-30   -29.970   -29.950     0.020     (0)  
Na            2.000e-01
   Na+             2.000e-01   1.493e-01    -0.699    -0.826    -0.127     (0)  
Nta           2.000e-04
   Zn(Nta)-        1.199e-04   8.951e-05    -3.921    -4.048    -0.127     (0)  
   ZnOH(Nta)-2     7.500e-05   2.328e-05    -4.125    -4.633    -0.508     (0)  
   H(Nta)-2        1.841e-06   2.250e-07    -5.735    -6.648    -0.913     (0)  
   Zn(Nta)2-4      1.414e-06   1.312e-08    -5.849    -7.882    -2.033     (0)  
   Nta-3           4.144e-07   2.979e-08    -6.383    -7.526    -1.143     (0)  
   H2(Nta)-        1.325e-13   7.836e-14   -12.878   -13.106    -0.228     (0)  
   H3(Nta)         3.120e-21   3.120e-21   -20.506   -20.506     0.000     (0)  
   H4(Nta)+        2.101e-29   1.242e-29   -28.678   -28.906    -0.228     (0)  
O(0)          7.586e-33
   O2              3.793e-33   3.972e-33   -32.421   -32.401     0.020     (0)  
Zn            2.000e-04
   Zn(Nta)-        1.199e-04   8.951e-05    -3.921    -4.048    -0.127     (0)  
   ZnOH(Nta)-2     7.500e-05   2.328e-05    -4.125    -4.633    -0.508     (0)  
   Zn(Nta)2-4      1.414e-06   1.312e-08    -5.849    -7.882    -2.033     (0)  
   ZnOHCl          1.389e-06   1.389e-06    -5.857    -5.857     0.000     (0)  
   Zn(OH)2         1.127e-06   1.127e-06    -5.948    -5.948     0.000     (0)  
   ZnOH+           4.787e-07   2.830e-07    -6.320    -6.548    -0.228     (0)  
   Zn+2            3.630e-07   1.127e-07    -6.440    -6.948    -0.508     (0)  
   Zn(OH)3-        2.399e-07   1.419e-07    -6.620    -6.848    -0.228     (0)  
   ZnCl+           5.881e-08   4.224e-08    -7.231    -7.374    -0.144     (0)  
   ZnCl2           9.994e-09   9.994e-09    -8.000    -8.000     0.000     (0)  
   ZnCl3-          1.650e-09   1.185e-09    -8.783    -8.926    -0.144     (0)  
   Zn(OH)4-2       1.161e-09   1.419e-10    -8.935    -9.848    -0.913     (0)  
   ZnCl4-2         2.971e-10   8.846e-11    -9.527   -10.053    -0.526     (0)  

------------------------------Saturation indices-------------------------------

  Phase               SI** log IAP   log K(298 K,   1 atm)

  Halite           -3.25     -1.65    1.60  NaCl
  O2(g)           -29.50     53.59   83.09  O2
  Zincite           0.51     11.85   11.33  ZnO
  Zn(OH)2          -0.35     11.85   12.20  Zn(OH)2
  Zn(OH)2(am)      -0.63     11.85   12.47  Zn(OH)2
  Zn(OH)2(beta)     0.09     11.85   11.75  Zn(OH)2
  Zn(OH)2(epsilon)   0.31     11.85   11.53  Zn(OH)2
  Zn(OH)2(gamma)    0.11     11.85   11.73  Zn(OH)2
  Zn2(OH)3Cl       -1.72     13.47   15.19  Zn2(OH)3Cl
  Zn5(OH)8Cl2       0.28     38.78   38.50  Zn5(OH)8Cl2
  ZnCl2           -15.65     -8.60    7.05  ZnCl2
  Znmetal         -40.74    -14.95   25.79  Zn
  ZnO(active)       0.66     11.85   11.19  ZnO

**For a gas, SI = log10(fugacity). Fugacity = pressure * phi / 1 atm.
  For ideal gases, phi = 1.

------------------
End of simulation.
------------------

-------------------------------------
Reading input data for simulation 36.
-------------------------------------

	SOLUTION 34
	pH		9.6
	Cl		0.2		mol/kgw
	Na		0.2		mol/kgw
	Zn	0.200 	mmol/kgw
	Nta  0.200 	mmol/kgw
	END
-------------------------------------------
Beginning of initial solution calculations.
-------------------------------------------

Initial solution 34.	

-----------------------------Solution composition------------------------------

	Elements           Molality       Moles

	Cl                2.000e-01   2.000e-01
	Na                2.000e-01   2.000e-01
	Nta               2.000e-04   2.000e-04
	Zn                2.000e-04   2.000e-04

----------------------------Description of solution----------------------------

                                       pH  =   9.600    
                                       pe  =   4.000    
                        Activity of water  =   0.993
                 Ionic strength (mol/kgw)  =   2.003e-01
                       Mass of water (kg)  =   1.000e+00
                 Total alkalinity (eq/kg)  =   3.578e-04
                         Temperature (°C)  =  25.00
                  Electrical balance (eq)  =  -3.578e-04
 Percent error, 100*(Cat-|An|)/(Cat+|An|)  =  -0.09
                               Iterations  =   9
                                  Total H  = 1.110138e+02
                                  Total O  = 5.550699e+01

----------------------------Distribution of species----------------------------

                                               Log       Log       Log    mole V
   Species          Molality    Activity  Molality  Activity     Gamma   cm³/mol

   OH-             5.633e-05   3.981e-05    -4.249    -4.400    -0.151     (0)  
   H+              3.365e-10   2.512e-10    -9.473    -9.600    -0.127      0.00
   H2O             5.551e+01   9.932e-01     1.744    -0.003     0.000     18.07
Cl            2.000e-01
   Cl-             2.000e-01   1.493e-01    -0.699    -0.826    -0.127     (0)  
   ZnOHCl          1.224e-06   1.224e-06    -5.912    -5.912     0.000     (0)  
   ZnCl+           3.268e-08   2.347e-08    -7.486    -7.629    -0.144     (0)  
   ZnCl2           5.554e-09   5.554e-09    -8.255    -8.255     0.000     (0)  
   ZnCl3-          9.168e-10   6.585e-10    -9.038    -9.181    -0.144     (0)  
   ZnCl4-2         1.651e-10   4.915e-11    -9.782   -10.308    -0.526     (0)  
H(0)          8.531e-31
   H2              4.266e-31   4.467e-31   -30.370   -30.350     0.020     (0)  
Na            2.000e-01
   Na+             2.000e-01   1.493e-01    -0.699    -0.826    -0.127     (0)  
Nta           2.000e-04
   Zn(Nta)-        9.759e-05   7.284e-05    -4.011    -4.138    -0.127     (0)  
   ZnOH(Nta)-2     9.673e-05   3.002e-05    -4.014    -4.523    -0.508     (0)  
   H(Nta)-2        1.701e-06   2.079e-07    -5.769    -6.682    -0.913     (0)  
   Zn(Nta)2-4      1.686e-06   1.564e-08    -5.773    -7.806    -2.033     (0)  
   Nta-3           6.069e-07   4.363e-08    -6.217    -7.360    -1.143     (0)  
   H2(Nta)-        7.727e-14   4.568e-14   -13.112   -13.340    -0.228     (0)  
   H3(Nta)         1.148e-21   1.148e-21   -20.940   -20.940     0.000     (0)  
   H4(Nta)+        4.876e-30   2.882e-30   -29.312   -29.540    -0.228     (0)  
O(0)          4.786e-32
   O2              2.393e-32   2.506e-32   -31.621   -31.601     0.020     (0)  
Zn            2.000e-04
   Zn(Nta)-        9.759e-05   7.284e-05    -4.011    -4.138    -0.127     (0)  
   ZnOH(Nta)-2     9.673e-05   3.002e-05    -4.014    -4.523    -0.508     (0)  
   Zn(Nta)2-4      1.686e-06   1.564e-08    -5.773    -7.806    -2.033     (0)  
   Zn(OH)2         1.573e-06   1.573e-06    -5.803    -5.803     0.000     (0)  
   ZnOHCl          1.224e-06   1.224e-06    -5.912    -5.912     0.000     (0)  
   Zn(OH)3-        5.308e-07   3.138e-07    -6.275    -6.503    -0.228     (0)  
   ZnOH+           4.216e-07   2.493e-07    -6.375    -6.603    -0.228     (0)  
   Zn+2            2.017e-07   6.260e-08    -6.695    -7.203    -0.508     (0)  
   ZnCl+           3.268e-08   2.347e-08    -7.486    -7.629    -0.144     (0)  
   ZnCl2           5.554e-09   5.554e-09    -8.255    -8.255     0.000     (0)  
   Zn(OH)4-2       4.072e-09   4.974e-10    -8.390    -9.303    -0.913     (0)  
   ZnCl3-          9.168e-10   6.585e-10    -9.038    -9.181    -0.144     (0)  
   ZnCl4-2         1.651e-10   4.915e-11    -9.782   -10.308    -0.526     (0)  

------------------------------Saturation indices-------------------------------

  Phase               SI** log IAP   log K(298 K,   1 atm)

  Halite           -3.25     -1.65    1.60  NaCl
  O2(g)           -28.70     54.39   83.09  O2
  Zincite           0.66     11.99   11.33  ZnO
  Zn(OH)2          -0.21     11.99   12.20  Zn(OH)2
  Zn(OH)2(am)      -0.48     11.99   12.47  Zn(OH)2
  Zn(OH)2(beta)     0.24     11.99   11.75  Zn(OH)2
  Zn(OH)2(epsilon)   0.46     11.99   11.53  Zn(OH)2
  Zn(OH)2(gamma)    0.26     11.99   11.73  Zn(OH)2
  Zn2(OH)3Cl       -1.63     13.56   15.19  Zn2(OH)3Cl
  Zn5(OH)8Cl2       0.61     39.11   38.50  Zn5(OH)8Cl2
  ZnCl2           -15.91     -8.86    7.05  ZnCl2
  Znmetal         -40.99    -15.20   25.79  Zn
  ZnO(active)       0.81     11.99   11.19  ZnO

**For a gas, SI = log10(fugacity). Fugacity = pressure * phi / 1 atm.
  For ideal gases, phi = 1.

------------------
End of simulation.
------------------

-------------------------------------
Reading input data for simulation 37.
-------------------------------------

	SOLUTION 35
	pH		9.8
	Cl		0.2		mol/kgw
	Na		0.2		mol/kgw
	Zn	0.200 	mmol/kgw
	Nta  0.200 	mmol/kgw
	END
-------------------------------------------
Beginning of initial solution calculations.
-------------------------------------------

Initial solution 35.	

-----------------------------Solution composition------------------------------

	Elements           Molality       Moles

	Cl                2.000e-01   2.000e-01
	Na                2.000e-01   2.000e-01
	Nta               2.000e-04   2.000e-04
	Zn                2.000e-04   2.000e-04

----------------------------Description of solution----------------------------

                                       pH  =   9.800    
                                       pe  =   4.000    
                        Activity of water  =   0.993
                 Ionic strength (mol/kgw)  =   2.003e-01
                       Mass of water (kg)  =   1.000e+00
                 Total alkalinity (eq/kg)  =   4.145e-04
                         Temperature (°C)  =  25.00
                  Electrical balance (eq)  =  -4.145e-04
 Percent error, 100*(Cat-|An|)/(Cat+|An|)  =  -0.10
                               Iterations  =   9
                                  Total H  = 1.110139e+02
                                  Total O  = 5.550705e+01

----------------------------Distribution of species----------------------------

                                               Log       Log       Log    mole V
   Species          Molality    Activity  Molality  Activity     Gamma   cm³/mol

   OH-             8.928e-05   6.310e-05    -4.049    -4.200    -0.151     (0)  
   H+              2.123e-10   1.585e-10    -9.673    -9.800    -0.127      0.00
   H2O             5.551e+01   9.932e-01     1.744    -0.003     0.000     18.07
Cl            2.000e-01
   Cl-             2.000e-01   1.493e-01    -0.699    -0.826    -0.127     (0)  
   ZnOHCl          9.834e-07   9.834e-07    -6.007    -6.007     0.000     (0)  
   ZnCl+           1.657e-08   1.190e-08    -7.781    -7.924    -0.144     (0)  
   ZnCl2           2.816e-09   2.816e-09    -8.550    -8.550     0.000     (0)  
   ZnCl3-          4.650e-10   3.339e-10    -9.333    -9.476    -0.144     (0)  
   ZnCl4-2         8.374e-11   2.493e-11   -10.077   -10.603    -0.526     (0)  
H(0)          3.396e-31
   H2              1.698e-31   1.778e-31   -30.770   -30.750     0.020     (0)  
Na            2.000e-01
   Na+             2.000e-01   1.493e-01    -0.699    -0.826    -0.127     (0)  
Nta           2.000e-04
   ZnOH(Nta)-2     1.182e-04   3.669e-05    -3.927    -4.435    -0.508     (0)  
   Zn(Nta)-        7.526e-05   5.617e-05    -4.123    -4.250    -0.127     (0)  
   Zn(Nta)2-4      1.977e-06   1.834e-08    -5.704    -7.737    -2.033     (0)  
   H(Nta)-2        1.633e-06   1.994e-07    -5.787    -6.700    -0.913     (0)  
   Nta-3           9.230e-07   6.634e-08    -6.035    -7.178    -1.143     (0)  
   H2(Nta)-        4.678e-14   2.766e-14   -13.330   -13.558    -0.228     (0)  
   H3(Nta)         4.383e-22   4.383e-22   -21.358   -21.358     0.000     (0)  
   H4(Nta)+        1.175e-30   6.947e-31   -29.930   -30.158    -0.228     (0)  
O(0)          3.020e-31
   O2              1.510e-31   1.581e-31   -30.821   -30.801     0.020     (0)  
Zn            2.000e-04
   ZnOH(Nta)-2     1.182e-04   3.669e-05    -3.927    -4.435    -0.508     (0)  
   Zn(Nta)-        7.526e-05   5.617e-05    -4.123    -4.250    -0.127     (0)  
   Zn(OH)2         2.004e-06   2.004e-06    -5.698    -5.698     0.000     (0)  
   Zn(Nta)2-4      1.977e-06   1.834e-08    -5.704    -7.737    -2.033     (0)  
   Zn(OH)3-        1.072e-06   6.336e-07    -5.970    -6.198    -0.228     (0)  
   ZnOHCl          9.834e-07   9.834e-07    -6.007    -6.007     0.000     (0)  
   ZnOH+           3.389e-07   2.003e-07    -6.470    -6.698    -0.228     (0)  
   Zn+2            1.023e-07   3.175e-08    -6.990    -7.498    -0.508     (0)  
   ZnCl+           1.657e-08   1.190e-08    -7.781    -7.924    -0.144     (0)  
   Zn(OH)4-2       1.303e-08   1.592e-09    -7.885    -8.798    -0.913     (0)  
   ZnCl2           2.816e-09   2.816e-09    -8.550    -8.550     0.000     (0)  
   ZnCl3-          4.650e-10   3.339e-10    -9.333    -9.476    -0.144     (0)  
   ZnCl4-2         8.374e-11   2.493e-11   -10.077   -10.603    -0.526     (0)  

------------------------------Saturation indices-------------------------------

  Phase               SI** log IAP   log K(298 K,   1 atm)

  Halite           -3.25     -1.65    1.60  NaCl
  O2(g)           -27.90     55.19   83.09  O2
  Zincite           0.76     12.10   11.33  ZnO
  Zn(OH)2          -0.10     12.10   12.20  Zn(OH)2
  Zn(OH)2(am)      -0.38     12.10   12.47  Zn(OH)2
  Zn(OH)2(beta)     0.34     12.10   11.75  Zn(OH)2
  Zn(OH)2(epsilon)   0.56     12.10   11.53  Zn(OH)2
  Zn(OH)2(gamma)    0.36     12.10   11.73  Zn(OH)2
  Zn2(OH)3Cl       -1.62     13.57   15.19  Zn2(OH)3Cl
  Zn5(OH)8Cl2       0.73     39.23   38.50  Zn5(OH)8Cl2
  ZnCl2           -16.20     -9.15    7.05  ZnCl2
  Znmetal         -41.29    -15.50   25.79  Zn
  ZnO(active)       0.91     12.10   11.19  ZnO

**For a gas, SI = log10(fugacity). Fugacity = pressure * phi / 1 atm.
  For ideal gases, phi = 1.

------------------
End of simulation.
------------------

-------------------------------------
Reading input data for simulation 38.
-------------------------------------

	SOLUTION 36
	pH		10.0
	Cl		0.2		mol/kgw
	Na		0.2		mol/kgw
	Zn	0.200 	mmol/kgw
	Nta  0.200 	mmol/kgw
	END
-------------------------------------------
Beginning of initial solution calculations.
-------------------------------------------

Initial solution 36.	

-----------------------------Solution composition------------------------------

	Elements           Molality       Moles

	Cl                2.000e-01   2.000e-01
	Na                2.000e-01   2.000e-01
	Nta               2.000e-04   2.000e-04
	Zn                2.000e-04   2.000e-04

----------------------------Description of solution----------------------------

                                       pH  =  10.000    
                                       pe  =   4.000    
                        Activity of water  =   0.993
                 Ionic strength (mol/kgw)  =   2.004e-01
                       Mass of water (kg)  =   1.000e+00
                 Total alkalinity (eq/kg)  =   4.888e-04
                         Temperature (°C)  =  25.00
                  Electrical balance (eq)  =  -4.888e-04
 Percent error, 100*(Cat-|An|)/(Cat+|An|)  =  -0.12
                               Iterations  =   7
                                  Total H  = 1.110140e+02
                                  Total O  = 5.550712e+01

----------------------------Distribution of species----------------------------

                                               Log       Log       Log    mole V
   Species          Molality    Activity  Molality  Activity     Gamma   cm³/mol

   OH-             1.415e-04   1.000e-04    -3.849    -4.000    -0.151     (0)  
   H+              1.340e-10   1.000e-10    -9.873   -10.000    -0.127      0.00
   H2O             5.551e+01   9.932e-01     1.744    -0.003     0.000     18.07
Cl            2.000e-01
   Cl-             2.000e-01   1.493e-01    -0.699    -0.826    -0.127     (0)  
   ZnOHCl          7.223e-07   7.223e-07    -6.141    -6.141     0.000     (0)  
   ZnCl+           7.681e-09   5.517e-09    -8.115    -8.258    -0.144     (0)  
   ZnCl2           1.305e-09   1.305e-09    -8.884    -8.884     0.000     (0)  
   ZnCl3-          2.155e-10   1.547e-10    -9.667    -9.810    -0.144     (0)  
   ZnCl4-2         3.881e-11   1.155e-11   -10.411   -10.937    -0.526     (0)  
H(0)          1.352e-31
   H2              6.760e-32   7.079e-32   -31.170   -31.150     0.020     (0)  
Na            2.000e-01
   Na+             2.000e-01   1.493e-01    -0.699    -0.826    -0.127     (0)  
Nta           2.000e-04
   ZnOH(Nta)-2     1.372e-04   4.258e-05    -3.863    -4.371    -0.508     (0)  
   Zn(Nta)-        5.511e-05   4.113e-05    -4.259    -4.386    -0.127     (0)  
   Zn(Nta)2-4      2.288e-06   2.122e-08    -5.640    -7.673    -2.033     (0)  
   H(Nta)-2        1.628e-06   1.988e-07    -5.788    -6.702    -0.913     (0)  
   Nta-3           1.459e-06   1.048e-07    -5.836    -6.980    -1.143     (0)  
   H2(Nta)-        2.943e-14   1.740e-14   -13.531   -13.760    -0.228     (0)  
   H3(Nta)         1.740e-22   1.740e-22   -21.760   -21.760     0.000     (0)  
   H4(Nta)+        2.943e-31   1.740e-31   -30.531   -30.760    -0.228     (0)  
O(0)          1.905e-30
   O2              9.527e-31   9.977e-31   -30.021   -30.001     0.020     (0)  
Zn            2.000e-04
   ZnOH(Nta)-2     1.372e-04   4.258e-05    -3.863    -4.371    -0.508     (0)  
   Zn(Nta)-        5.511e-05   4.113e-05    -4.259    -4.386    -0.127     (0)  
   Zn(OH)2         2.332e-06   2.332e-06    -5.632    -5.632     0.000     (0)  
   Zn(Nta)2-4      2.288e-06   2.122e-08    -5.640    -7.673    -2.033     (0)  
   Zn(OH)3-        1.977e-06   1.169e-06    -5.704    -5.932    -0.228     (0)  
   ZnOHCl          7.223e-07   7.223e-07    -6.141    -6.141     0.000     (0)  
   ZnOH+           2.489e-07   1.471e-07    -6.604    -6.832    -0.228     (0)  
   Zn+2            4.741e-08   1.471e-08    -7.324    -7.832    -0.508     (0)  
   Zn(OH)4-2       3.812e-08   4.654e-09    -7.419    -8.332    -0.913     (0)  
   ZnCl+           7.681e-09   5.517e-09    -8.115    -8.258    -0.144     (0)  
   ZnCl2           1.305e-09   1.305e-09    -8.884    -8.884     0.000     (0)  
   ZnCl3-          2.155e-10   1.547e-10    -9.667    -9.810    -0.144     (0)  
   ZnCl4-2         3.881e-11   1.155e-11   -10.411   -10.937    -0.526     (0)  

------------------------------Saturation indices-------------------------------

  Phase               SI** log IAP   log K(298 K,   1 atm)

  Halite           -3.25     -1.65    1.60  NaCl
  O2(g)           -27.10     55.99   83.09  O2
  Zincite           0.83     12.16   11.33  ZnO
  Zn(OH)2          -0.04     12.16   12.20  Zn(OH)2
  Zn(OH)2(am)      -0.31     12.16   12.47  Zn(OH)2
  Zn(OH)2(beta)     0.41     12.16   11.75  Zn(OH)2
  Zn(OH)2(epsilon)   0.63     12.16   11.53  Zn(OH)2
  Zn(OH)2(gamma)    0.43     12.16   11.73  Zn(OH)2
  Zn2(OH)3Cl       -1.69     13.50   15.19  Zn2(OH)3Cl
  Zn5(OH)8Cl2       0.66     39.16   38.50  Zn5(OH)8Cl2
  ZnCl2           -16.53     -9.48    7.05  ZnCl2
  Znmetal         -41.62    -15.83   25.79  Zn
  ZnO(active)       0.98     12.16   11.19  ZnO

**For a gas, SI = log10(fugacity). Fugacity = pressure * phi / 1 atm.
  For ideal gases, phi = 1.

------------------
End of simulation.
------------------

-------------------------------------
Reading input data for simulation 39.
-------------------------------------

----------------------------------
End of Run after 0.058591 Seconds.
----------------------------------

